                                  MODFLOW-2000
      U.S. GEOLOGICAL SURVEY MODULAR FINITE-DIFFERENCE GROUND-WATER FLOW MODEL
                           VERSION 1.18.01 06/20/2008


 This model run combines GLOBAL and LIST output into this single file.

 GLOBAL LISTING FILE: walter1994.lst
                         UNIT    2

 OPENING walter1994.dis
 FILE TYPE:DIS   UNIT   10   STATUS:OLD    
 FORMAT:FORMATTED              ACCESS:SEQUENTIAL          

 OPENING walter1994.bas6
 FILE TYPE:BAS6   UNIT   11   STATUS:OLD    
 FORMAT:FORMATTED              ACCESS:SEQUENTIAL          

 OPENING walter1994.lpf
 FILE TYPE:LPF   UNIT   12   STATUS:OLD    
 FORMAT:FORMATTED              ACCESS:SEQUENTIAL          

 OPENING walter1994.pcg
 FILE TYPE:PCG   UNIT   14   STATUS:OLD    
 FORMAT:FORMATTED              ACCESS:SEQUENTIAL          

 OPENING walter1994.oc
 FILE TYPE:OC   UNIT   26   STATUS:OLD    
 FORMAT:FORMATTED              ACCESS:SEQUENTIAL          

 OPENING walter1994.head
 FILE TYPE:DATA(BINARY)   UNIT   30   STATUS:UNKNOWN
 FORMAT:BINARY                 ACCESS:SEQUENTIAL          

 OPENING walter1994.budget
 FILE TYPE:DATA(BINARY)   UNIT   31   STATUS:UNKNOWN
 FORMAT:BINARY                 ACCESS:SEQUENTIAL          

 OPENING walter1994.lmt
 FILE TYPE:LMT6   UNIT   28   STATUS:OLD    
 FORMAT:FORMATTED              ACCESS:SEQUENTIAL          

 THE FREE FORMAT OPTION HAS BEEN SELECTED

 DISCRETIZATION INPUT DATA READ FROM UNIT   10
    1 LAYERS        10 ROWS        25 COLUMNS
  100 STRESS PERIOD(S) IN SIMULATION
 MODEL TIME UNIT IS DAYS
 MODEL LENGTH UNIT IS METERS
 THE GROUND-WATER TRANSPORT PROCESS IS INACTIVE

 THE OBSERVATION PROCESS IS INACTIVE
 THE SENSITIVITY PROCESS IS INACTIVE
 THE PARAMETER-ESTIMATION PROCESS IS INACTIVE

 MODE: FORWARD

  Confining bed flag for each layer:
   0

       2285  ELEMENTS OF GX ARRAY USED OUT OF       2285
        250  ELEMENTS OF GZ ARRAY USED OUT OF        250
        250  ELEMENTS OF IG ARRAY USED OUT OF        250

                     DELR =   4.00000    

                     DELC =   1.00000    

 TOP ELEVATION OF LAYER 1 =   10.0000    

   MODEL LAYER BOTTOM EL. =   0.00000     FOR LAYER   1


 STRESS PERIOD     LENGTH       TIME STEPS     MULTIPLIER FOR DELT    SS FLAG
 ----------------------------------------------------------------------------
        1         20.00000          1                    1.000         SS
        2         20.00000          1                    1.000         TR
        3         20.00000          1                    1.000         TR
        4         20.00000          1                    1.000         TR
        5         20.00000          1                    1.000         TR
        6         20.00000          1                    1.000         TR
        7         20.00000          1                    1.000         TR
        8         20.00000          1                    1.000         TR
        9         20.00000          1                    1.000         TR
       10         20.00000          1                    1.000         TR
       11         20.00000          1                    1.000         TR
       12         20.00000          1                    1.000         TR
       13         20.00000          1                    1.000         TR
       14         20.00000          1                    1.000         TR
       15         20.00000          1                    1.000         TR
       16         20.00000          1                    1.000         TR
       17         20.00000          1                    1.000         TR
       18         20.00000          1                    1.000         TR
       19         20.00000          1                    1.000         TR
       20         20.00000          1                    1.000         TR
       21         20.00000          1                    1.000         TR
       22         20.00000          1                    1.000         TR
       23         20.00000          1                    1.000         TR
       24         20.00000          1                    1.000         TR
       25         20.00000          1                    1.000         TR
       26         20.00000          1                    1.000         TR
       27         20.00000          1                    1.000         TR
       28         20.00000          1                    1.000         TR
       29         20.00000          1                    1.000         TR
       30         20.00000          1                    1.000         TR
       31         20.00000          1                    1.000         TR
       32         20.00000          1                    1.000         TR
       33         20.00000          1                    1.000         TR
       34         20.00000          1                    1.000         TR
       35         20.00000          1                    1.000         TR
       36         20.00000          1                    1.000         TR
       37         20.00000          1                    1.000         TR
       38         20.00000          1                    1.000         TR
       39         20.00000          1                    1.000         TR
       40         20.00000          1                    1.000         TR
       41         20.00000          1                    1.000         TR
       42         20.00000          1                    1.000         TR
       43         20.00000          1                    1.000         TR
       44         20.00000          1                    1.000         TR
       45         20.00000          1                    1.000         TR
       46         20.00000          1                    1.000         TR
       47         20.00000          1                    1.000         TR
       48         20.00000          1                    1.000         TR
       49         20.00000          1                    1.000         TR
       50         20.00000          1                    1.000         TR
       51         20.00000          1                    1.000         TR
       52         20.00000          1                    1.000         TR
       53         20.00000          1                    1.000         TR
       54         20.00000          1                    1.000         TR
       55         20.00000          1                    1.000         TR
       56         20.00000          1                    1.000         TR
       57         20.00000          1                    1.000         TR
       58         20.00000          1                    1.000         TR
       59         20.00000          1                    1.000         TR
       60         20.00000          1                    1.000         TR
       61         20.00000          1                    1.000         TR
       62         20.00000          1                    1.000         TR
       63         20.00000          1                    1.000         TR
       64         20.00000          1                    1.000         TR
       65         20.00000          1                    1.000         TR
       66         20.00000          1                    1.000         TR
       67         20.00000          1                    1.000         TR
       68         20.00000          1                    1.000         TR
       69         20.00000          1                    1.000         TR
       70         20.00000          1                    1.000         TR
       71         20.00000          1                    1.000         TR
       72         20.00000          1                    1.000         TR
       73         20.00000          1                    1.000         TR
       74         20.00000          1                    1.000         TR
       75         20.00000          1                    1.000         TR
       76         20.00000          1                    1.000         TR
       77         20.00000          1                    1.000         TR
       78         20.00000          1                    1.000         TR
       79         20.00000          1                    1.000         TR
       80         20.00000          1                    1.000         TR
       81         20.00000          1                    1.000         TR
       82         20.00000          1                    1.000         TR
       83         20.00000          1                    1.000         TR
       84         20.00000          1                    1.000         TR
       85         20.00000          1                    1.000         TR
       86         20.00000          1                    1.000         TR
       87         20.00000          1                    1.000         TR
       88         20.00000          1                    1.000         TR
       89         20.00000          1                    1.000         TR
       90         20.00000          1                    1.000         TR
       91         20.00000          1                    1.000         TR
       92         20.00000          1                    1.000         TR
       93         20.00000          1                    1.000         TR
       94         20.00000          1                    1.000         TR
       95         20.00000          1                    1.000         TR
       96         20.00000          1                    1.000         TR
       97         20.00000          1                    1.000         TR
       98         20.00000          1                    1.000         TR
       99         20.00000          1                    1.000         TR
      100         20.00000          1                    1.000         TR

 COMBINED STEADY-STATE AND TRANSIENT SIMULATION




 LPF1 -- LAYER PROPERTY FLOW PACKAGE, VERSION 1, 1/11/2000
         INPUT READ FROM UNIT   12
 CELL-BY-CELL FLOWS WILL BE SAVED ON UNIT   31
 HEAD AT CELLS THAT CONVERT TO DRY=  1.00000E-02
 No named parameters

   LAYER FLAGS:
 LAYER       LAYTYP        LAYAVG         CHANI        LAYVKA        LAYWET
 ---------------------------------------------------------------------------
    1             0             0     1.000E+00             0             0

   INTERPRETATION OF LAYER FLAGS:
                        INTERBLOCK     HORIZONTAL    DATA IN
         LAYER TYPE   TRANSMISSIVITY   ANISOTROPY   ARRAY VKA   WETTABILITY
 LAYER      (LAYTYP)      (LAYAVG)       (CHANI)      (LAYVKA)      (LAYWET)
 ---------------------------------------------------------------------------
    1      CONFINED      HARMONIC     1.000E+00    VERTICAL K  NON-WETTABLE

        750 ELEMENTS IN X ARRAY ARE USED BY LPF
          6 ELEMENTS IN IX ARRAY ARE USED BY LPF

 PCG2 -- CONJUGATE GRADIENT SOLUTION PACKAGE, VERSION 2.4, 12/29/98
 MAXIMUM OF     10 CALLS OF SOLUTION ROUTINE
 MAXIMUM OF  30000 INTERNAL ITERATIONS PER CALL TO SOLUTION ROUTINE
 MATRIX PRECONDITIONING TYPE :    1
     600500 ELEMENTS IN X ARRAY ARE USED BY PCG
    2100000 ELEMENTS IN IX ARRAY ARE USED BY PCG
       1000 ELEMENTS IN Z ARRAY ARE USED BY PCG

     601250  ELEMENTS OF X ARRAY USED OUT OF     601250
       1000  ELEMENTS OF Z ARRAY USED OUT OF       1000
    2100006  ELEMENTS OF IX ARRAY USED OUT OF    2100006
          0  ELEMENTS OF XHS ARRAY USED OUT OF          1



                                    SOLUTION BY THE CONJUGATE-GRADIENT METHOD
                                   -------------------------------------------
                    MAXIMUM NUMBER OF CALLS TO PCG ROUTINE =       10
                        MAXIMUM ITERATIONS PER CALL TO PCG =    30000
                               MATRIX PRECONDITIONING TYPE =        1
        RELAXATION FACTOR (ONLY USED WITH PRECOND. TYPE 1) =    0.10000E+01
 PARAMETER OF POLYNOMIAL PRECOND. = 2 (2) OR IS CALCULATED :        2
                         HEAD CHANGE CRITERION FOR CLOSURE =    0.10000E-03
                     RESIDUAL CHANGE CRITERION FOR CLOSURE =    0.10000E-02
            PCG HEAD AND RESIDUAL CHANGE PRINTOUT INTERVAL =      999
     PRINTING FROM SOLVER IS LIMITED(1) OR SUPPRESSED (>1) =        2
                                         DAMPING PARAMETER =    0.10000E+01

 WETTING CAPABILITY IS NOT ACTIVE IN ANY LAYER

    HYD. COND. ALONG ROWS =   1.00000     FOR LAYER   1

      VERTICAL HYD. COND. =   1.00000     FOR LAYER   1

         SPECIFIC STORAGE =  1.000000E-06 FOR LAYER   1
 
 #         0                                                                     
 THE FREE FORMAT OPTION HAS BEEN SELECTED
    1 LAYERS        10 ROWS        25 COLUMNS
  100 STRESS PERIOD(S) IN SIMULATION

 BAS6 -- BASIC PACKAGE, VERSION 6, 1/11/2000 INPUT READ FROM UNIT   11
          5 ELEMENTS IN IR ARRAY ARE USED BY BAS

          0  ELEMENTS OF RX ARRAY USED OUT OF          1
          0  ELEMENTS OF RZ ARRAY USED OUT OF          1
          5  ELEMENTS OF IR ARRAY USED OUT OF          5
1
 #         0                                                                     
                                                                                 



                     BOUNDARY ARRAY FOR LAYER   1
 READING ON UNIT   11 WITH FORMAT: (25I3)              

        1   2   3   4   5   6   7   8   9  10  11  12  13  14  15  16  17  18  19  20  21  22  23  24  25
 ........................................................................................................
   1   -1   1   1   1   1   1   1   1   1   1   1   1   1   1   1   1   1   1   1   1   1   1   1   1  -1
   2   -1   1   1   1   1   1   1   1   1   1   1   1   1   1   1   1   1   1   1   1   1   1   1   1  -1
   3   -1   1   1   1   1   1   1   1   1   1   1   1   1   1   1   1   1   1   1   1   1   1   1   1  -1
   4   -1   1   1   1   1   1   1   1   1   1   1   1   1   1   1   1   1   1   1   1   1   1   1   1  -1
   5   -1   1   1   1   1   1   1   1   1   1   1   1   1   1   1   1   1   1   1   1   1   1   1   1  -1
   6   -1   1   1   1   1   1   1   1   1   1   1   1   1   1   1   1   1   1   1   1   1   1   1   1  -1
   7   -1   1   1   1   1   1   1   1   1   1   1   1   1   1   1   1   1   1   1   1   1   1   1   1  -1
   8   -1   1   1   1   1   1   1   1   1   1   1   1   1   1   1   1   1   1   1   1   1   1   1   1  -1
   9   -1   1   1   1   1   1   1   1   1   1   1   1   1   1   1   1   1   1   1   1   1   1   1   1  -1
  10   -1   1   1   1   1   1   1   1   1   1   1   1   1   1   1   1   1   1   1   1   1   1   1   1  -1

 AQUIFER HEAD WILL BE SET TO  0.0000     AT ALL NO-FLOW NODES (IBOUND=0).



                       INITIAL HEAD FOR LAYER   1
 READING ON UNIT   11 WITH FORMAT: (25G12.4)           

           1       2       3       4       5       6       7       8       9      10      11      12      13      14      15
          16      17      18      19      20      21      22      23      24      25
 ...........................................................................................................................
   1     12.0    10.0    10.0    10.0    10.0    10.0    10.0    10.0    10.0    10.0    10.0    10.0    10.0    10.0    10.0
         10.0    10.0    10.0    10.0    10.0    10.0    10.0    10.0    10.0    10.0
   2     12.0    10.0    10.0    10.0    10.0    10.0    10.0    10.0    10.0    10.0    10.0    10.0    10.0    10.0    10.0
         10.0    10.0    10.0    10.0    10.0    10.0    10.0    10.0    10.0    10.0
   3     12.0    10.0    10.0    10.0    10.0    10.0    10.0    10.0    10.0    10.0    10.0    10.0    10.0    10.0    10.0
         10.0    10.0    10.0    10.0    10.0    10.0    10.0    10.0    10.0    10.0
   4     12.0    10.0    10.0    10.0    10.0    10.0    10.0    10.0    10.0    10.0    10.0    10.0    10.0    10.0    10.0
         10.0    10.0    10.0    10.0    10.0    10.0    10.0    10.0    10.0    10.0
   5     12.0    10.0    10.0    10.0    10.0    10.0    10.0    10.0    10.0    10.0    10.0    10.0    10.0    10.0    10.0
         10.0    10.0    10.0    10.0    10.0    10.0    10.0    10.0    10.0    10.0
   6     12.0    10.0    10.0    10.0    10.0    10.0    10.0    10.0    10.0    10.0    10.0    10.0    10.0    10.0    10.0
         10.0    10.0    10.0    10.0    10.0    10.0    10.0    10.0    10.0    10.0
   7     12.0    10.0    10.0    10.0    10.0    10.0    10.0    10.0    10.0    10.0    10.0    10.0    10.0    10.0    10.0
         10.0    10.0    10.0    10.0    10.0    10.0    10.0    10.0    10.0    10.0
   8     12.0    10.0    10.0    10.0    10.0    10.0    10.0    10.0    10.0    10.0    10.0    10.0    10.0    10.0    10.0
         10.0    10.0    10.0    10.0    10.0    10.0    10.0    10.0    10.0    10.0
   9     12.0    10.0    10.0    10.0    10.0    10.0    10.0    10.0    10.0    10.0    10.0    10.0    10.0    10.0    10.0
         10.0    10.0    10.0    10.0    10.0    10.0    10.0    10.0    10.0    10.0
  10     12.0    10.0    10.0    10.0    10.0    10.0    10.0    10.0    10.0    10.0    10.0    10.0    10.0    10.0    10.0
         10.0    10.0    10.0    10.0    10.0    10.0    10.0    10.0    10.0    10.0

 OUTPUT CONTROL IS SPECIFIED ONLY AT TIME STEPS FOR WHICH OUTPUT IS DESIRED
 COMPACT CELL-BY-CELL BUDGET FILES WILL BE WRITTEN
 HEAD PRINT FORMAT CODE IS   0    DRAWDOWN PRINT FORMAT CODE IS   0
 HEADS WILL BE SAVED ON UNIT   30    DRAWDOWNS WILL BE SAVED ON UNIT    0
1
                            STRESS PERIOD NO.    1, LENGTH =   20.00000    
                            -----------------------------------------------

                              NUMBER OF TIME STEPS =     1

                               MULTIPLIER FOR DELT =     1.000

                            INITIAL TIME STEP SIZE =   20.00000    
 
 SOLVING FOR HEAD 

 OUTPUT CONTROL FOR STRESS PERIOD    1   TIME STEP   1
    SAVE HEAD FOR ALL LAYERS
    SAVE BUDGET
 UBDSV2 SAVING "   CONSTANT HEAD" ON UNIT  31 AT TIME STEP  1, STRESS PERIOD   1
 UBDSV1 SAVING "FLOW RIGHT FACE " ON UNIT  31 AT TIME STEP  1, STRESS PERIOD   1
 UBDSV1 SAVING "FLOW FRONT FACE " ON UNIT  31 AT TIME STEP  1, STRESS PERIOD   1


 ***Link-MT3DMS Package***
 OPENING LINK-MT3DMS OUTPUT FILE: walter1994.flo                                                                                                                                                                                          
 ON UNIT NUMBER:   333
 FILE TYPE: UNFORMATTED
 HEADER OPTION: STANDARD
 ***Link-MT3DMS Package***


 SAVING SATURATED THICKNESS AND FLOW TERMS ON UNIT  333 FOR MT3DMS
 BY THE LINK-MT3DMS PACKAGE V6.3 AT TIME STEP    1, STRESS PERIOD    1


 HEAD WILL BE SAVED ON UNIT   30 AT END OF TIME STEP   1, STRESS PERIOD    1
1
  VOLUMETRIC BUDGET FOR ENTIRE MODEL AT END OF TIME STEP  1 IN STRESS PERIOD   1
  ------------------------------------------------------------------------------

     CUMULATIVE VOLUMES      L**3       RATES FOR THIS TIME STEP      L**3/T
     ------------------                 ------------------------

           IN:                                      IN:
           ---                                      ---
             STORAGE =           0.0000               STORAGE =           0.0000
       CONSTANT HEAD =          41.6667         CONSTANT HEAD =           2.0833

            TOTAL IN =          41.6667              TOTAL IN =           2.0833

          OUT:                                     OUT:
          ----                                     ----
             STORAGE =           0.0000               STORAGE =           0.0000
       CONSTANT HEAD =          41.6671         CONSTANT HEAD =           2.0834

           TOTAL OUT =          41.6671             TOTAL OUT =           2.0834

            IN - OUT =      -4.3488E-04              IN - OUT =      -2.1696E-05

 PERCENT DISCREPANCY =           0.00     PERCENT DISCREPANCY =           0.00






          TIME SUMMARY AT END OF TIME STEP   1 IN STRESS PERIOD    1
                    SECONDS     MINUTES      HOURS       DAYS        YEARS
                    -----------------------------------------------------------
   TIME STEP LENGTH 1.72800E+06  28800.      480.00      20.000     5.47570E-02
 STRESS PERIOD TIME 1.72800E+06  28800.      480.00      20.000     5.47570E-02
         TOTAL TIME 1.72800E+06  28800.      480.00      20.000     5.47570E-02
1
1
                            STRESS PERIOD NO.    2, LENGTH =   20.00000    
                            -----------------------------------------------

                              NUMBER OF TIME STEPS =     1

                               MULTIPLIER FOR DELT =     1.000

                            INITIAL TIME STEP SIZE =   20.00000    
 
 SOLVING FOR HEAD 

 OUTPUT CONTROL FOR STRESS PERIOD    2   TIME STEP   1
    SAVE HEAD FOR ALL LAYERS
    SAVE BUDGET
 UBDSV1 SAVING "         STORAGE" ON UNIT  31 AT TIME STEP  1, STRESS PERIOD   2
 UBDSV2 SAVING "   CONSTANT HEAD" ON UNIT  31 AT TIME STEP  1, STRESS PERIOD   2
 UBDSV1 SAVING "FLOW RIGHT FACE " ON UNIT  31 AT TIME STEP  1, STRESS PERIOD   2
 UBDSV1 SAVING "FLOW FRONT FACE " ON UNIT  31 AT TIME STEP  1, STRESS PERIOD   2

 SAVING SATURATED THICKNESS AND FLOW TERMS ON UNIT  333 FOR MT3DMS
 BY THE LINK-MT3DMS PACKAGE V6.3 AT TIME STEP    1, STRESS PERIOD    2


 HEAD WILL BE SAVED ON UNIT   30 AT END OF TIME STEP   1, STRESS PERIOD    2
1
  VOLUMETRIC BUDGET FOR ENTIRE MODEL AT END OF TIME STEP  1 IN STRESS PERIOD   2
  ------------------------------------------------------------------------------

     CUMULATIVE VOLUMES      L**3       RATES FOR THIS TIME STEP      L**3/T
     ------------------                 ------------------------

           IN:                                      IN:
           ---                                      ---
             STORAGE =       2.5066E-08               STORAGE =       1.2533E-09
       CONSTANT HEAD =          83.3333         CONSTANT HEAD =           2.0833

            TOTAL IN =          83.3333              TOTAL IN =           2.0833

          OUT:                                     OUT:
          ----                                     ----
             STORAGE =       2.0711E-08               STORAGE =       1.0355E-09
       CONSTANT HEAD =          83.3341         CONSTANT HEAD =           2.0833

           TOTAL OUT =          83.3341             TOTAL OUT =           2.0833

            IN - OUT =      -7.1716E-04              IN - OUT =      -1.4067E-05

 PERCENT DISCREPANCY =           0.00     PERCENT DISCREPANCY =           0.00






          TIME SUMMARY AT END OF TIME STEP   1 IN STRESS PERIOD    2
                    SECONDS     MINUTES      HOURS       DAYS        YEARS
                    -----------------------------------------------------------
   TIME STEP LENGTH 1.72800E+06  28800.      480.00      20.000     5.47570E-02
 STRESS PERIOD TIME 1.72800E+06  28800.      480.00      20.000     5.47570E-02
         TOTAL TIME 3.45600E+06  57600.      960.00      40.000     0.10951    
1
1
                            STRESS PERIOD NO.    3, LENGTH =   20.00000    
                            -----------------------------------------------

                              NUMBER OF TIME STEPS =     1

                               MULTIPLIER FOR DELT =     1.000

                            INITIAL TIME STEP SIZE =   20.00000    
 
 SOLVING FOR HEAD 

 OUTPUT CONTROL FOR STRESS PERIOD    3   TIME STEP   1
    SAVE HEAD FOR ALL LAYERS
    SAVE BUDGET
 UBDSV1 SAVING "         STORAGE" ON UNIT  31 AT TIME STEP  1, STRESS PERIOD   3
 UBDSV2 SAVING "   CONSTANT HEAD" ON UNIT  31 AT TIME STEP  1, STRESS PERIOD   3
 UBDSV1 SAVING "FLOW RIGHT FACE " ON UNIT  31 AT TIME STEP  1, STRESS PERIOD   3
 UBDSV1 SAVING "FLOW FRONT FACE " ON UNIT  31 AT TIME STEP  1, STRESS PERIOD   3

 SAVING SATURATED THICKNESS AND FLOW TERMS ON UNIT  333 FOR MT3DMS
 BY THE LINK-MT3DMS PACKAGE V6.3 AT TIME STEP    1, STRESS PERIOD    3


 HEAD WILL BE SAVED ON UNIT   30 AT END OF TIME STEP   1, STRESS PERIOD    3
1
  VOLUMETRIC BUDGET FOR ENTIRE MODEL AT END OF TIME STEP  1 IN STRESS PERIOD   3
  ------------------------------------------------------------------------------

     CUMULATIVE VOLUMES      L**3       RATES FOR THIS TIME STEP      L**3/T
     ------------------                 ------------------------

           IN:                                      IN:
           ---                                      ---
             STORAGE =       4.6886E-08               STORAGE =       1.0910E-09
       CONSTANT HEAD =         125.0000         CONSTANT HEAD =           2.0833

            TOTAL IN =         125.0000              TOTAL IN =           2.0833

          OUT:                                     OUT:
          ----                                     ----
             STORAGE =       3.1410E-08               STORAGE =       5.3497E-10
       CONSTANT HEAD =         125.0009         CONSTANT HEAD =           2.0833

           TOTAL OUT =         125.0009             TOTAL OUT =           2.0833

            IN - OUT =      -8.5449E-04              IN - OUT =      -6.6757E-06

 PERCENT DISCREPANCY =           0.00     PERCENT DISCREPANCY =           0.00






          TIME SUMMARY AT END OF TIME STEP   1 IN STRESS PERIOD    3
                    SECONDS     MINUTES      HOURS       DAYS        YEARS
                    -----------------------------------------------------------
   TIME STEP LENGTH 1.72800E+06  28800.      480.00      20.000     5.47570E-02
 STRESS PERIOD TIME 1.72800E+06  28800.      480.00      20.000     5.47570E-02
         TOTAL TIME 5.18400E+06  86400.      1440.0      60.000     0.16427    
1
1
                            STRESS PERIOD NO.    4, LENGTH =   20.00000    
                            -----------------------------------------------

                              NUMBER OF TIME STEPS =     1

                               MULTIPLIER FOR DELT =     1.000

                            INITIAL TIME STEP SIZE =   20.00000    
 
 SOLVING FOR HEAD 

 OUTPUT CONTROL FOR STRESS PERIOD    4   TIME STEP   1
    SAVE HEAD FOR ALL LAYERS
    SAVE BUDGET
 UBDSV1 SAVING "         STORAGE" ON UNIT  31 AT TIME STEP  1, STRESS PERIOD   4
 UBDSV2 SAVING "   CONSTANT HEAD" ON UNIT  31 AT TIME STEP  1, STRESS PERIOD   4
 UBDSV1 SAVING "FLOW RIGHT FACE " ON UNIT  31 AT TIME STEP  1, STRESS PERIOD   4
 UBDSV1 SAVING "FLOW FRONT FACE " ON UNIT  31 AT TIME STEP  1, STRESS PERIOD   4

 SAVING SATURATED THICKNESS AND FLOW TERMS ON UNIT  333 FOR MT3DMS
 BY THE LINK-MT3DMS PACKAGE V6.3 AT TIME STEP    1, STRESS PERIOD    4


 HEAD WILL BE SAVED ON UNIT   30 AT END OF TIME STEP   1, STRESS PERIOD    4
1
  VOLUMETRIC BUDGET FOR ENTIRE MODEL AT END OF TIME STEP  1 IN STRESS PERIOD   4
  ------------------------------------------------------------------------------

     CUMULATIVE VOLUMES      L**3       RATES FOR THIS TIME STEP      L**3/T
     ------------------                 ------------------------

           IN:                                      IN:
           ---                                      ---
             STORAGE =       6.0116E-08               STORAGE =       6.6149E-10
       CONSTANT HEAD =         166.6667         CONSTANT HEAD =           2.0833

            TOTAL IN =         166.6667              TOTAL IN =           2.0833

          OUT:                                     OUT:
          ----                                     ----
             STORAGE =       4.3478E-08               STORAGE =       6.0337E-10
       CONSTANT HEAD =         166.6676         CONSTANT HEAD =           2.0833

           TOTAL OUT =         166.6676             TOTAL OUT =           2.0833

            IN - OUT =      -9.4604E-04              IN - OUT =      -5.0068E-06

 PERCENT DISCREPANCY =           0.00     PERCENT DISCREPANCY =           0.00






          TIME SUMMARY AT END OF TIME STEP   1 IN STRESS PERIOD    4
                    SECONDS     MINUTES      HOURS       DAYS        YEARS
                    -----------------------------------------------------------
   TIME STEP LENGTH 1.72800E+06  28800.      480.00      20.000     5.47570E-02
 STRESS PERIOD TIME 1.72800E+06  28800.      480.00      20.000     5.47570E-02
         TOTAL TIME 6.91200E+06 1.15200E+05  1920.0      80.000     0.21903    
1
1
                            STRESS PERIOD NO.    5, LENGTH =   20.00000    
                            -----------------------------------------------

                              NUMBER OF TIME STEPS =     1

                               MULTIPLIER FOR DELT =     1.000

                            INITIAL TIME STEP SIZE =   20.00000    
 
 SOLVING FOR HEAD 

 OUTPUT CONTROL FOR STRESS PERIOD    5   TIME STEP   1
    SAVE HEAD FOR ALL LAYERS
    SAVE BUDGET
 UBDSV1 SAVING "         STORAGE" ON UNIT  31 AT TIME STEP  1, STRESS PERIOD   5
 UBDSV2 SAVING "   CONSTANT HEAD" ON UNIT  31 AT TIME STEP  1, STRESS PERIOD   5
 UBDSV1 SAVING "FLOW RIGHT FACE " ON UNIT  31 AT TIME STEP  1, STRESS PERIOD   5
 UBDSV1 SAVING "FLOW FRONT FACE " ON UNIT  31 AT TIME STEP  1, STRESS PERIOD   5

 SAVING SATURATED THICKNESS AND FLOW TERMS ON UNIT  333 FOR MT3DMS
 BY THE LINK-MT3DMS PACKAGE V6.3 AT TIME STEP    1, STRESS PERIOD    5


 HEAD WILL BE SAVED ON UNIT   30 AT END OF TIME STEP   1, STRESS PERIOD    5
1
  VOLUMETRIC BUDGET FOR ENTIRE MODEL AT END OF TIME STEP  1 IN STRESS PERIOD   5
  ------------------------------------------------------------------------------

     CUMULATIVE VOLUMES      L**3       RATES FOR THIS TIME STEP      L**3/T
     ------------------                 ------------------------

           IN:                                      IN:
           ---                                      ---
             STORAGE =       7.3148E-08               STORAGE =       6.5156E-10
       CONSTANT HEAD =         208.3333         CONSTANT HEAD =           2.0833

            TOTAL IN =         208.3333              TOTAL IN =           2.0833

          OUT:                                     OUT:
          ----                                     ----
             STORAGE =       4.9754E-08               STORAGE =       3.1384E-10
       CONSTANT HEAD =         208.3343         CONSTANT HEAD =           2.0833

           TOTAL OUT =         208.3343             TOTAL OUT =           2.0833

            IN - OUT =      -9.9182E-04              IN - OUT =      -2.3842E-06

 PERCENT DISCREPANCY =           0.00     PERCENT DISCREPANCY =           0.00






          TIME SUMMARY AT END OF TIME STEP   1 IN STRESS PERIOD    5
                    SECONDS     MINUTES      HOURS       DAYS        YEARS
                    -----------------------------------------------------------
   TIME STEP LENGTH 1.72800E+06  28800.      480.00      20.000     5.47570E-02
 STRESS PERIOD TIME 1.72800E+06  28800.      480.00      20.000     5.47570E-02
         TOTAL TIME 8.64000E+06 1.44000E+05  2400.0      100.00     0.27379    
1
1
                            STRESS PERIOD NO.    6, LENGTH =   20.00000    
                            -----------------------------------------------

                              NUMBER OF TIME STEPS =     1

                               MULTIPLIER FOR DELT =     1.000

                            INITIAL TIME STEP SIZE =   20.00000    
 
 SOLVING FOR HEAD 

 OUTPUT CONTROL FOR STRESS PERIOD    6   TIME STEP   1
    SAVE HEAD FOR ALL LAYERS
    SAVE BUDGET
 UBDSV1 SAVING "         STORAGE" ON UNIT  31 AT TIME STEP  1, STRESS PERIOD   6
 UBDSV2 SAVING "   CONSTANT HEAD" ON UNIT  31 AT TIME STEP  1, STRESS PERIOD   6
 UBDSV1 SAVING "FLOW RIGHT FACE " ON UNIT  31 AT TIME STEP  1, STRESS PERIOD   6
 UBDSV1 SAVING "FLOW FRONT FACE " ON UNIT  31 AT TIME STEP  1, STRESS PERIOD   6

 SAVING SATURATED THICKNESS AND FLOW TERMS ON UNIT  333 FOR MT3DMS
 BY THE LINK-MT3DMS PACKAGE V6.3 AT TIME STEP    1, STRESS PERIOD    6


 HEAD WILL BE SAVED ON UNIT   30 AT END OF TIME STEP   1, STRESS PERIOD    6
1
  VOLUMETRIC BUDGET FOR ENTIRE MODEL AT END OF TIME STEP  1 IN STRESS PERIOD   6
  ------------------------------------------------------------------------------

     CUMULATIVE VOLUMES      L**3       RATES FOR THIS TIME STEP      L**3/T
     ------------------                 ------------------------

           IN:                                      IN:
           ---                                      ---
             STORAGE =       8.1629E-08               STORAGE =       4.2409E-10
       CONSTANT HEAD =         250.0000         CONSTANT HEAD =           2.0833

            TOTAL IN =         250.0000              TOTAL IN =           2.0833

          OUT:                                     OUT:
          ----                                     ----
             STORAGE =       5.7509E-08               STORAGE =       3.8774E-10
       CONSTANT HEAD =         250.0010         CONSTANT HEAD =           2.0833

           TOTAL OUT =         250.0010             TOTAL OUT =           2.0833

            IN - OUT =      -1.0223E-03              IN - OUT =      -1.9073E-06

 PERCENT DISCREPANCY =           0.00     PERCENT DISCREPANCY =           0.00






          TIME SUMMARY AT END OF TIME STEP   1 IN STRESS PERIOD    6
                    SECONDS     MINUTES      HOURS       DAYS        YEARS
                    -----------------------------------------------------------
   TIME STEP LENGTH 1.72800E+06  28800.      480.00      20.000     5.47570E-02
 STRESS PERIOD TIME 1.72800E+06  28800.      480.00      20.000     5.47570E-02
         TOTAL TIME 1.03680E+07 1.72800E+05  2880.0      120.00     0.32854    
1
1
                            STRESS PERIOD NO.    7, LENGTH =   20.00000    
                            -----------------------------------------------

                              NUMBER OF TIME STEPS =     1

                               MULTIPLIER FOR DELT =     1.000

                            INITIAL TIME STEP SIZE =   20.00000    
 
 SOLVING FOR HEAD 

 OUTPUT CONTROL FOR STRESS PERIOD    7   TIME STEP   1
    SAVE HEAD FOR ALL LAYERS
    SAVE BUDGET
 UBDSV1 SAVING "         STORAGE" ON UNIT  31 AT TIME STEP  1, STRESS PERIOD   7
 UBDSV2 SAVING "   CONSTANT HEAD" ON UNIT  31 AT TIME STEP  1, STRESS PERIOD   7
 UBDSV1 SAVING "FLOW RIGHT FACE " ON UNIT  31 AT TIME STEP  1, STRESS PERIOD   7
 UBDSV1 SAVING "FLOW FRONT FACE " ON UNIT  31 AT TIME STEP  1, STRESS PERIOD   7

 SAVING SATURATED THICKNESS AND FLOW TERMS ON UNIT  333 FOR MT3DMS
 BY THE LINK-MT3DMS PACKAGE V6.3 AT TIME STEP    1, STRESS PERIOD    7


 HEAD WILL BE SAVED ON UNIT   30 AT END OF TIME STEP   1, STRESS PERIOD    7
1
  VOLUMETRIC BUDGET FOR ENTIRE MODEL AT END OF TIME STEP  1 IN STRESS PERIOD   7
  ------------------------------------------------------------------------------

     CUMULATIVE VOLUMES      L**3       RATES FOR THIS TIME STEP      L**3/T
     ------------------                 ------------------------

           IN:                                      IN:
           ---                                      ---
             STORAGE =       9.0178E-08               STORAGE =       4.2742E-10
       CONSTANT HEAD =         291.6667         CONSTANT HEAD =           2.0833

            TOTAL IN =         291.6667              TOTAL IN =           2.0833

          OUT:                                     OUT:
          ----                                     ----
             STORAGE =       6.1636E-08               STORAGE =       2.0635E-10
       CONSTANT HEAD =         291.6677         CONSTANT HEAD =           2.0833

           TOTAL OUT =         291.6677             TOTAL OUT =           2.0833

            IN - OUT =      -1.0376E-03              IN - OUT =      -1.1921E-06

 PERCENT DISCREPANCY =           0.00     PERCENT DISCREPANCY =           0.00






          TIME SUMMARY AT END OF TIME STEP   1 IN STRESS PERIOD    7
                    SECONDS     MINUTES      HOURS       DAYS        YEARS
                    -----------------------------------------------------------
   TIME STEP LENGTH 1.72800E+06  28800.      480.00      20.000     5.47570E-02
 STRESS PERIOD TIME 1.72800E+06  28800.      480.00      20.000     5.47570E-02
         TOTAL TIME 1.20960E+07 2.01600E+05  3360.0      140.00     0.38330    
1
1
                            STRESS PERIOD NO.    8, LENGTH =   20.00000    
                            -----------------------------------------------

                              NUMBER OF TIME STEPS =     1

                               MULTIPLIER FOR DELT =     1.000

                            INITIAL TIME STEP SIZE =   20.00000    
 
 SOLVING FOR HEAD 

 OUTPUT CONTROL FOR STRESS PERIOD    8   TIME STEP   1
    SAVE HEAD FOR ALL LAYERS
    SAVE BUDGET
 UBDSV1 SAVING "         STORAGE" ON UNIT  31 AT TIME STEP  1, STRESS PERIOD   8
 UBDSV2 SAVING "   CONSTANT HEAD" ON UNIT  31 AT TIME STEP  1, STRESS PERIOD   8
 UBDSV1 SAVING "FLOW RIGHT FACE " ON UNIT  31 AT TIME STEP  1, STRESS PERIOD   8
 UBDSV1 SAVING "FLOW FRONT FACE " ON UNIT  31 AT TIME STEP  1, STRESS PERIOD   8

 SAVING SATURATED THICKNESS AND FLOW TERMS ON UNIT  333 FOR MT3DMS
 BY THE LINK-MT3DMS PACKAGE V6.3 AT TIME STEP    1, STRESS PERIOD    8


 HEAD WILL BE SAVED ON UNIT   30 AT END OF TIME STEP   1, STRESS PERIOD    8
1
  VOLUMETRIC BUDGET FOR ENTIRE MODEL AT END OF TIME STEP  1 IN STRESS PERIOD   8
  ------------------------------------------------------------------------------

     CUMULATIVE VOLUMES      L**3       RATES FOR THIS TIME STEP      L**3/T
     ------------------                 ------------------------

           IN:                                      IN:
           ---                                      ---
             STORAGE =       9.6164E-08               STORAGE =       2.9932E-10
       CONSTANT HEAD =         333.3333         CONSTANT HEAD =           2.0833

            TOTAL IN =         333.3333              TOTAL IN =           2.0833

          OUT:                                     OUT:
          ----                                     ----
             STORAGE =       6.7215E-08               STORAGE =       2.7893E-10
       CONSTANT HEAD =         333.3344         CONSTANT HEAD =           2.0833

           TOTAL OUT =         333.3344             TOTAL OUT =           2.0833

            IN - OUT =      -1.0681E-03              IN - OUT =      -9.5367E-07

 PERCENT DISCREPANCY =           0.00     PERCENT DISCREPANCY =           0.00






          TIME SUMMARY AT END OF TIME STEP   1 IN STRESS PERIOD    8
                    SECONDS     MINUTES      HOURS       DAYS        YEARS
                    -----------------------------------------------------------
   TIME STEP LENGTH 1.72800E+06  28800.      480.00      20.000     5.47570E-02
 STRESS PERIOD TIME 1.72800E+06  28800.      480.00      20.000     5.47570E-02
         TOTAL TIME 1.38240E+07 2.30400E+05  3840.0      160.00     0.43806    
1
1
                            STRESS PERIOD NO.    9, LENGTH =   20.00000    
                            -----------------------------------------------

                              NUMBER OF TIME STEPS =     1

                               MULTIPLIER FOR DELT =     1.000

                            INITIAL TIME STEP SIZE =   20.00000    
 
 SOLVING FOR HEAD 

 OUTPUT CONTROL FOR STRESS PERIOD    9   TIME STEP   1
    SAVE HEAD FOR ALL LAYERS
    SAVE BUDGET
 UBDSV1 SAVING "         STORAGE" ON UNIT  31 AT TIME STEP  1, STRESS PERIOD   9
 UBDSV2 SAVING "   CONSTANT HEAD" ON UNIT  31 AT TIME STEP  1, STRESS PERIOD   9
 UBDSV1 SAVING "FLOW RIGHT FACE " ON UNIT  31 AT TIME STEP  1, STRESS PERIOD   9
 UBDSV1 SAVING "FLOW FRONT FACE " ON UNIT  31 AT TIME STEP  1, STRESS PERIOD   9

 SAVING SATURATED THICKNESS AND FLOW TERMS ON UNIT  333 FOR MT3DMS
 BY THE LINK-MT3DMS PACKAGE V6.3 AT TIME STEP    1, STRESS PERIOD    9


 HEAD WILL BE SAVED ON UNIT   30 AT END OF TIME STEP   1, STRESS PERIOD    9
1
  VOLUMETRIC BUDGET FOR ENTIRE MODEL AT END OF TIME STEP  1 IN STRESS PERIOD   9
  ------------------------------------------------------------------------------

     CUMULATIVE VOLUMES      L**3       RATES FOR THIS TIME STEP      L**3/T
     ------------------                 ------------------------

           IN:                                      IN:
           ---                                      ---
             STORAGE =       1.0163E-07               STORAGE =       2.7313E-10
       CONSTANT HEAD =         375.0000         CONSTANT HEAD =           2.0833

            TOTAL IN =         375.0000              TOTAL IN =           2.0833

          OUT:                                     OUT:
          ----                                     ----
             STORAGE =       7.0230E-08               STORAGE =       1.5079E-10
       CONSTANT HEAD =         375.0011         CONSTANT HEAD =           2.0833

           TOTAL OUT =         375.0011             TOTAL OUT =           2.0833

            IN - OUT =      -1.0986E-03              IN - OUT =      -4.7684E-07

 PERCENT DISCREPANCY =           0.00     PERCENT DISCREPANCY =           0.00






          TIME SUMMARY AT END OF TIME STEP   1 IN STRESS PERIOD    9
                    SECONDS     MINUTES      HOURS       DAYS        YEARS
                    -----------------------------------------------------------
   TIME STEP LENGTH 1.72800E+06  28800.      480.00      20.000     5.47570E-02
 STRESS PERIOD TIME 1.72800E+06  28800.      480.00      20.000     5.47570E-02
         TOTAL TIME 1.55520E+07 2.59200E+05  4320.0      180.00     0.49281    
1
1
                            STRESS PERIOD NO.   10, LENGTH =   20.00000    
                            -----------------------------------------------

                              NUMBER OF TIME STEPS =     1

                               MULTIPLIER FOR DELT =     1.000

                            INITIAL TIME STEP SIZE =   20.00000    
 
 SOLVING FOR HEAD 

 OUTPUT CONTROL FOR STRESS PERIOD   10   TIME STEP   1
    SAVE HEAD FOR ALL LAYERS
    SAVE BUDGET
 UBDSV1 SAVING "         STORAGE" ON UNIT  31 AT TIME STEP  1, STRESS PERIOD  10
 UBDSV2 SAVING "   CONSTANT HEAD" ON UNIT  31 AT TIME STEP  1, STRESS PERIOD  10
 UBDSV1 SAVING "FLOW RIGHT FACE " ON UNIT  31 AT TIME STEP  1, STRESS PERIOD  10
 UBDSV1 SAVING "FLOW FRONT FACE " ON UNIT  31 AT TIME STEP  1, STRESS PERIOD  10

 SAVING SATURATED THICKNESS AND FLOW TERMS ON UNIT  333 FOR MT3DMS
 BY THE LINK-MT3DMS PACKAGE V6.3 AT TIME STEP    1, STRESS PERIOD   10


 HEAD WILL BE SAVED ON UNIT   30 AT END OF TIME STEP   1, STRESS PERIOD   10
1
  VOLUMETRIC BUDGET FOR ENTIRE MODEL AT END OF TIME STEP  1 IN STRESS PERIOD  10
  ------------------------------------------------------------------------------

     CUMULATIVE VOLUMES      L**3       RATES FOR THIS TIME STEP      L**3/T
     ------------------                 ------------------------

           IN:                                      IN:
           ---                                      ---
             STORAGE =       1.0561E-07               STORAGE =       1.9897E-10
       CONSTANT HEAD =         416.6667         CONSTANT HEAD =           2.0833

            TOTAL IN =         416.6667              TOTAL IN =           2.0833

          OUT:                                     OUT:
          ----                                     ----
             STORAGE =       7.4287E-08               STORAGE =       2.0284E-10
       CONSTANT HEAD =         416.6678         CONSTANT HEAD =           2.0833

           TOTAL OUT =         416.6678             TOTAL OUT =           2.0833

            IN - OUT =      -1.1292E-03              IN - OUT =      -4.7684E-07

 PERCENT DISCREPANCY =           0.00     PERCENT DISCREPANCY =           0.00






          TIME SUMMARY AT END OF TIME STEP   1 IN STRESS PERIOD   10
                    SECONDS     MINUTES      HOURS       DAYS        YEARS
                    -----------------------------------------------------------
   TIME STEP LENGTH 1.72800E+06  28800.      480.00      20.000     5.47570E-02
 STRESS PERIOD TIME 1.72800E+06  28800.      480.00      20.000     5.47570E-02
         TOTAL TIME 1.72800E+07 2.88000E+05  4800.0      200.00     0.54757    
1
1
                            STRESS PERIOD NO.   11, LENGTH =   20.00000    
                            -----------------------------------------------

                              NUMBER OF TIME STEPS =     1

                               MULTIPLIER FOR DELT =     1.000

                            INITIAL TIME STEP SIZE =   20.00000    
 
 SOLVING FOR HEAD 

 OUTPUT CONTROL FOR STRESS PERIOD   11   TIME STEP   1
    SAVE HEAD FOR ALL LAYERS
    SAVE BUDGET
 UBDSV1 SAVING "         STORAGE" ON UNIT  31 AT TIME STEP  1, STRESS PERIOD  11
 UBDSV2 SAVING "   CONSTANT HEAD" ON UNIT  31 AT TIME STEP  1, STRESS PERIOD  11
 UBDSV1 SAVING "FLOW RIGHT FACE " ON UNIT  31 AT TIME STEP  1, STRESS PERIOD  11
 UBDSV1 SAVING "FLOW FRONT FACE " ON UNIT  31 AT TIME STEP  1, STRESS PERIOD  11

 SAVING SATURATED THICKNESS AND FLOW TERMS ON UNIT  333 FOR MT3DMS
 BY THE LINK-MT3DMS PACKAGE V6.3 AT TIME STEP    1, STRESS PERIOD   11


 HEAD WILL BE SAVED ON UNIT   30 AT END OF TIME STEP   1, STRESS PERIOD   11
1
  VOLUMETRIC BUDGET FOR ENTIRE MODEL AT END OF TIME STEP  1 IN STRESS PERIOD  11
  ------------------------------------------------------------------------------

     CUMULATIVE VOLUMES      L**3       RATES FOR THIS TIME STEP      L**3/T
     ------------------                 ------------------------

           IN:                                      IN:
           ---                                      ---
             STORAGE =       1.0951E-07               STORAGE =       1.9508E-10
       CONSTANT HEAD =         458.3333         CONSTANT HEAD =           2.0833

            TOTAL IN =         458.3333              TOTAL IN =           2.0833

          OUT:                                     OUT:
          ----                                     ----
             STORAGE =       7.6255E-08               STORAGE =       9.8369E-11
       CONSTANT HEAD =         458.3345         CONSTANT HEAD =           2.0833

           TOTAL OUT =         458.3345             TOTAL OUT =           2.0833

            IN - OUT =      -1.1597E-03              IN - OUT =      -2.3842E-07

 PERCENT DISCREPANCY =           0.00     PERCENT DISCREPANCY =           0.00






          TIME SUMMARY AT END OF TIME STEP   1 IN STRESS PERIOD   11
                    SECONDS     MINUTES      HOURS       DAYS        YEARS
                    -----------------------------------------------------------
   TIME STEP LENGTH 1.72800E+06  28800.      480.00      20.000     5.47570E-02
 STRESS PERIOD TIME 1.72800E+06  28800.      480.00      20.000     5.47570E-02
         TOTAL TIME 1.90080E+07 3.16800E+05  5280.0      220.00     0.60233    
1
1
                            STRESS PERIOD NO.   12, LENGTH =   20.00000    
                            -----------------------------------------------

                              NUMBER OF TIME STEPS =     1

                               MULTIPLIER FOR DELT =     1.000

                            INITIAL TIME STEP SIZE =   20.00000    
 
 SOLVING FOR HEAD 

 OUTPUT CONTROL FOR STRESS PERIOD   12   TIME STEP   1
    SAVE HEAD FOR ALL LAYERS
    SAVE BUDGET
 UBDSV1 SAVING "         STORAGE" ON UNIT  31 AT TIME STEP  1, STRESS PERIOD  12
 UBDSV2 SAVING "   CONSTANT HEAD" ON UNIT  31 AT TIME STEP  1, STRESS PERIOD  12
 UBDSV1 SAVING "FLOW RIGHT FACE " ON UNIT  31 AT TIME STEP  1, STRESS PERIOD  12
 UBDSV1 SAVING "FLOW FRONT FACE " ON UNIT  31 AT TIME STEP  1, STRESS PERIOD  12

 SAVING SATURATED THICKNESS AND FLOW TERMS ON UNIT  333 FOR MT3DMS
 BY THE LINK-MT3DMS PACKAGE V6.3 AT TIME STEP    1, STRESS PERIOD   12


 HEAD WILL BE SAVED ON UNIT   30 AT END OF TIME STEP   1, STRESS PERIOD   12
1
  VOLUMETRIC BUDGET FOR ENTIRE MODEL AT END OF TIME STEP  1 IN STRESS PERIOD  12
  ------------------------------------------------------------------------------

     CUMULATIVE VOLUMES      L**3       RATES FOR THIS TIME STEP      L**3/T
     ------------------                 ------------------------

           IN:                                      IN:
           ---                                      ---
             STORAGE =       1.1197E-07               STORAGE =       1.2324E-10
       CONSTANT HEAD =         500.0000         CONSTANT HEAD =           2.0833

            TOTAL IN =         500.0000              TOTAL IN =           2.0833

          OUT:                                     OUT:
          ----                                     ----
             STORAGE =       7.8719E-08               STORAGE =       1.2320E-10
       CONSTANT HEAD =         500.0012         CONSTANT HEAD =           2.0833

           TOTAL OUT =         500.0012             TOTAL OUT =           2.0833

            IN - OUT =      -1.1902E-03              IN - OUT =      -2.3842E-07

 PERCENT DISCREPANCY =           0.00     PERCENT DISCREPANCY =           0.00






          TIME SUMMARY AT END OF TIME STEP   1 IN STRESS PERIOD   12
                    SECONDS     MINUTES      HOURS       DAYS        YEARS
                    -----------------------------------------------------------
   TIME STEP LENGTH 1.72800E+06  28800.      480.00      20.000     5.47570E-02
 STRESS PERIOD TIME 1.72800E+06  28800.      480.00      20.000     5.47570E-02
         TOTAL TIME 2.07360E+07 3.45600E+05  5760.0      240.00     0.65708    
1
1
                            STRESS PERIOD NO.   13, LENGTH =   20.00000    
                            -----------------------------------------------

                              NUMBER OF TIME STEPS =     1

                               MULTIPLIER FOR DELT =     1.000

                            INITIAL TIME STEP SIZE =   20.00000    
 
 SOLVING FOR HEAD 

 OUTPUT CONTROL FOR STRESS PERIOD   13   TIME STEP   1
    SAVE HEAD FOR ALL LAYERS
    SAVE BUDGET
 UBDSV1 SAVING "         STORAGE" ON UNIT  31 AT TIME STEP  1, STRESS PERIOD  13
 UBDSV2 SAVING "   CONSTANT HEAD" ON UNIT  31 AT TIME STEP  1, STRESS PERIOD  13
 UBDSV1 SAVING "FLOW RIGHT FACE " ON UNIT  31 AT TIME STEP  1, STRESS PERIOD  13
 UBDSV1 SAVING "FLOW FRONT FACE " ON UNIT  31 AT TIME STEP  1, STRESS PERIOD  13

 SAVING SATURATED THICKNESS AND FLOW TERMS ON UNIT  333 FOR MT3DMS
 BY THE LINK-MT3DMS PACKAGE V6.3 AT TIME STEP    1, STRESS PERIOD   13


 HEAD WILL BE SAVED ON UNIT   30 AT END OF TIME STEP   1, STRESS PERIOD   13
1
  VOLUMETRIC BUDGET FOR ENTIRE MODEL AT END OF TIME STEP  1 IN STRESS PERIOD  13
  ------------------------------------------------------------------------------

     CUMULATIVE VOLUMES      L**3       RATES FOR THIS TIME STEP      L**3/T
     ------------------                 ------------------------

           IN:                                      IN:
           ---                                      ---
             STORAGE =       1.1474E-07               STORAGE =       1.3829E-10
       CONSTANT HEAD =         541.6666         CONSTANT HEAD =           2.0833

            TOTAL IN =         541.6666              TOTAL IN =           2.0833

          OUT:                                     OUT:
          ----                                     ----
             STORAGE =       8.0227E-08               STORAGE =       7.5429E-11
       CONSTANT HEAD =         541.6678         CONSTANT HEAD =           2.0833

           TOTAL OUT =         541.6678             TOTAL OUT =           2.0833

            IN - OUT =      -1.2207E-03              IN - OUT =      -2.3842E-07

 PERCENT DISCREPANCY =           0.00     PERCENT DISCREPANCY =           0.00






          TIME SUMMARY AT END OF TIME STEP   1 IN STRESS PERIOD   13
                    SECONDS     MINUTES      HOURS       DAYS        YEARS
                    -----------------------------------------------------------
   TIME STEP LENGTH 1.72800E+06  28800.      480.00      20.000     5.47570E-02
 STRESS PERIOD TIME 1.72800E+06  28800.      480.00      20.000     5.47570E-02
         TOTAL TIME 2.24640E+07 3.74400E+05  6240.0      260.00     0.71184    
1
1
                            STRESS PERIOD NO.   14, LENGTH =   20.00000    
                            -----------------------------------------------

                              NUMBER OF TIME STEPS =     1

                               MULTIPLIER FOR DELT =     1.000

                            INITIAL TIME STEP SIZE =   20.00000    
 
 SOLVING FOR HEAD 

 OUTPUT CONTROL FOR STRESS PERIOD   14   TIME STEP   1
    SAVE HEAD FOR ALL LAYERS
    SAVE BUDGET
 UBDSV1 SAVING "         STORAGE" ON UNIT  31 AT TIME STEP  1, STRESS PERIOD  14
 UBDSV2 SAVING "   CONSTANT HEAD" ON UNIT  31 AT TIME STEP  1, STRESS PERIOD  14
 UBDSV1 SAVING "FLOW RIGHT FACE " ON UNIT  31 AT TIME STEP  1, STRESS PERIOD  14
 UBDSV1 SAVING "FLOW FRONT FACE " ON UNIT  31 AT TIME STEP  1, STRESS PERIOD  14

 SAVING SATURATED THICKNESS AND FLOW TERMS ON UNIT  333 FOR MT3DMS
 BY THE LINK-MT3DMS PACKAGE V6.3 AT TIME STEP    1, STRESS PERIOD   14


 HEAD WILL BE SAVED ON UNIT   30 AT END OF TIME STEP   1, STRESS PERIOD   14
1
  VOLUMETRIC BUDGET FOR ENTIRE MODEL AT END OF TIME STEP  1 IN STRESS PERIOD  14
  ------------------------------------------------------------------------------

     CUMULATIVE VOLUMES      L**3       RATES FOR THIS TIME STEP      L**3/T
     ------------------                 ------------------------

           IN:                                      IN:
           ---                                      ---
             STORAGE =       1.1686E-07               STORAGE =       1.0592E-10
       CONSTANT HEAD =         583.3333         CONSTANT HEAD =           2.0833

            TOTAL IN =         583.3333              TOTAL IN =           2.0833

          OUT:                                     OUT:
          ----                                     ----
             STORAGE =       8.2048E-08               STORAGE =       9.1041E-11
       CONSTANT HEAD =         583.3345         CONSTANT HEAD =           2.0833

           TOTAL OUT =         583.3345             TOTAL OUT =           2.0833

            IN - OUT =      -1.2207E-03              IN - OUT =           0.0000

 PERCENT DISCREPANCY =           0.00     PERCENT DISCREPANCY =           0.00






          TIME SUMMARY AT END OF TIME STEP   1 IN STRESS PERIOD   14
                    SECONDS     MINUTES      HOURS       DAYS        YEARS
                    -----------------------------------------------------------
   TIME STEP LENGTH 1.72800E+06  28800.      480.00      20.000     5.47570E-02
 STRESS PERIOD TIME 1.72800E+06  28800.      480.00      20.000     5.47570E-02
         TOTAL TIME 2.41920E+07 4.03200E+05  6720.0      280.00     0.76660    
1
1
                            STRESS PERIOD NO.   15, LENGTH =   20.00000    
                            -----------------------------------------------

                              NUMBER OF TIME STEPS =     1

                               MULTIPLIER FOR DELT =     1.000

                            INITIAL TIME STEP SIZE =   20.00000    
 
 SOLVING FOR HEAD 

 OUTPUT CONTROL FOR STRESS PERIOD   15   TIME STEP   1
    SAVE HEAD FOR ALL LAYERS
    SAVE BUDGET
 UBDSV1 SAVING "         STORAGE" ON UNIT  31 AT TIME STEP  1, STRESS PERIOD  15
 UBDSV2 SAVING "   CONSTANT HEAD" ON UNIT  31 AT TIME STEP  1, STRESS PERIOD  15
 UBDSV1 SAVING "FLOW RIGHT FACE " ON UNIT  31 AT TIME STEP  1, STRESS PERIOD  15
 UBDSV1 SAVING "FLOW FRONT FACE " ON UNIT  31 AT TIME STEP  1, STRESS PERIOD  15

 SAVING SATURATED THICKNESS AND FLOW TERMS ON UNIT  333 FOR MT3DMS
 BY THE LINK-MT3DMS PACKAGE V6.3 AT TIME STEP    1, STRESS PERIOD   15


 HEAD WILL BE SAVED ON UNIT   30 AT END OF TIME STEP   1, STRESS PERIOD   15
1
  VOLUMETRIC BUDGET FOR ENTIRE MODEL AT END OF TIME STEP  1 IN STRESS PERIOD  15
  ------------------------------------------------------------------------------

     CUMULATIVE VOLUMES      L**3       RATES FOR THIS TIME STEP      L**3/T
     ------------------                 ------------------------

           IN:                                      IN:
           ---                                      ---
             STORAGE =       1.1892E-07               STORAGE =       1.0301E-10
       CONSTANT HEAD =         625.0000         CONSTANT HEAD =           2.0833

            TOTAL IN =         625.0000              TOTAL IN =           2.0833

          OUT:                                     OUT:
          ----                                     ----
             STORAGE =       8.3408E-08               STORAGE =       6.7982E-11
       CONSTANT HEAD =         625.0012         CONSTANT HEAD =           2.0833

           TOTAL OUT =         625.0012             TOTAL OUT =           2.0833

            IN - OUT =      -1.2207E-03              IN - OUT =           0.0000

 PERCENT DISCREPANCY =           0.00     PERCENT DISCREPANCY =           0.00






          TIME SUMMARY AT END OF TIME STEP   1 IN STRESS PERIOD   15
                    SECONDS     MINUTES      HOURS       DAYS        YEARS
                    -----------------------------------------------------------
   TIME STEP LENGTH 1.72800E+06  28800.      480.00      20.000     5.47570E-02
 STRESS PERIOD TIME 1.72800E+06  28800.      480.00      20.000     5.47570E-02
         TOTAL TIME 2.59200E+07 4.32000E+05  7200.0      300.00     0.82136    
1
1
                            STRESS PERIOD NO.   16, LENGTH =   20.00000    
                            -----------------------------------------------

                              NUMBER OF TIME STEPS =     1

                               MULTIPLIER FOR DELT =     1.000

                            INITIAL TIME STEP SIZE =   20.00000    
 
 SOLVING FOR HEAD 

 OUTPUT CONTROL FOR STRESS PERIOD   16   TIME STEP   1
    SAVE HEAD FOR ALL LAYERS
    SAVE BUDGET
 UBDSV1 SAVING "         STORAGE" ON UNIT  31 AT TIME STEP  1, STRESS PERIOD  16
 UBDSV2 SAVING "   CONSTANT HEAD" ON UNIT  31 AT TIME STEP  1, STRESS PERIOD  16
 UBDSV1 SAVING "FLOW RIGHT FACE " ON UNIT  31 AT TIME STEP  1, STRESS PERIOD  16
 UBDSV1 SAVING "FLOW FRONT FACE " ON UNIT  31 AT TIME STEP  1, STRESS PERIOD  16

 SAVING SATURATED THICKNESS AND FLOW TERMS ON UNIT  333 FOR MT3DMS
 BY THE LINK-MT3DMS PACKAGE V6.3 AT TIME STEP    1, STRESS PERIOD   16


 HEAD WILL BE SAVED ON UNIT   30 AT END OF TIME STEP   1, STRESS PERIOD   16
1
  VOLUMETRIC BUDGET FOR ENTIRE MODEL AT END OF TIME STEP  1 IN STRESS PERIOD  16
  ------------------------------------------------------------------------------

     CUMULATIVE VOLUMES      L**3       RATES FOR THIS TIME STEP      L**3/T
     ------------------                 ------------------------

           IN:                                      IN:
           ---                                      ---
             STORAGE =       1.2036E-07               STORAGE =       7.2220E-11
       CONSTANT HEAD =         666.6667         CONSTANT HEAD =           2.0833

            TOTAL IN =         666.6667              TOTAL IN =           2.0833

          OUT:                                     OUT:
          ----                                     ----
             STORAGE =       8.4939E-08               STORAGE =       7.6554E-11
       CONSTANT HEAD =         666.6679         CONSTANT HEAD =           2.0833

           TOTAL OUT =         666.6679             TOTAL OUT =           2.0833

            IN - OUT =      -1.2207E-03              IN - OUT =      -2.3842E-07

 PERCENT DISCREPANCY =           0.00     PERCENT DISCREPANCY =           0.00






          TIME SUMMARY AT END OF TIME STEP   1 IN STRESS PERIOD   16
                    SECONDS     MINUTES      HOURS       DAYS        YEARS
                    -----------------------------------------------------------
   TIME STEP LENGTH 1.72800E+06  28800.      480.00      20.000     5.47570E-02
 STRESS PERIOD TIME 1.72800E+06  28800.      480.00      20.000     5.47570E-02
         TOTAL TIME 2.76480E+07 4.60800E+05  7680.0      320.00     0.87611    
1
1
                            STRESS PERIOD NO.   17, LENGTH =   20.00000    
                            -----------------------------------------------

                              NUMBER OF TIME STEPS =     1

                               MULTIPLIER FOR DELT =     1.000

                            INITIAL TIME STEP SIZE =   20.00000    
 
 SOLVING FOR HEAD 

 OUTPUT CONTROL FOR STRESS PERIOD   17   TIME STEP   1
    SAVE HEAD FOR ALL LAYERS
    SAVE BUDGET
 UBDSV1 SAVING "         STORAGE" ON UNIT  31 AT TIME STEP  1, STRESS PERIOD  17
 UBDSV2 SAVING "   CONSTANT HEAD" ON UNIT  31 AT TIME STEP  1, STRESS PERIOD  17
 UBDSV1 SAVING "FLOW RIGHT FACE " ON UNIT  31 AT TIME STEP  1, STRESS PERIOD  17
 UBDSV1 SAVING "FLOW FRONT FACE " ON UNIT  31 AT TIME STEP  1, STRESS PERIOD  17

 SAVING SATURATED THICKNESS AND FLOW TERMS ON UNIT  333 FOR MT3DMS
 BY THE LINK-MT3DMS PACKAGE V6.3 AT TIME STEP    1, STRESS PERIOD   17


 HEAD WILL BE SAVED ON UNIT   30 AT END OF TIME STEP   1, STRESS PERIOD   17
1
  VOLUMETRIC BUDGET FOR ENTIRE MODEL AT END OF TIME STEP  1 IN STRESS PERIOD  17
  ------------------------------------------------------------------------------

     CUMULATIVE VOLUMES      L**3       RATES FOR THIS TIME STEP      L**3/T
     ------------------                 ------------------------

           IN:                                      IN:
           ---                                      ---
             STORAGE =       1.2199E-07               STORAGE =       8.1503E-11
       CONSTANT HEAD =         708.3334         CONSTANT HEAD =           2.0833

            TOTAL IN =         708.3334              TOTAL IN =           2.0833

          OUT:                                     OUT:
          ----                                     ----
             STORAGE =       8.6135E-08               STORAGE =       5.9799E-11
       CONSTANT HEAD =         708.3346         CONSTANT HEAD =           2.0833

           TOTAL OUT =         708.3346             TOTAL OUT =           2.0833

            IN - OUT =      -1.2207E-03              IN - OUT =      -2.3842E-07

 PERCENT DISCREPANCY =           0.00     PERCENT DISCREPANCY =           0.00






          TIME SUMMARY AT END OF TIME STEP   1 IN STRESS PERIOD   17
                    SECONDS     MINUTES      HOURS       DAYS        YEARS
                    -----------------------------------------------------------
   TIME STEP LENGTH 1.72800E+06  28800.      480.00      20.000     5.47570E-02
 STRESS PERIOD TIME 1.72800E+06  28800.      480.00      20.000     5.47570E-02
         TOTAL TIME 2.93760E+07 4.89600E+05  8160.0      340.00     0.93087    
1
1
                            STRESS PERIOD NO.   18, LENGTH =   20.00000    
                            -----------------------------------------------

                              NUMBER OF TIME STEPS =     1

                               MULTIPLIER FOR DELT =     1.000

                            INITIAL TIME STEP SIZE =   20.00000    
 
 SOLVING FOR HEAD 

 OUTPUT CONTROL FOR STRESS PERIOD   18   TIME STEP   1
    SAVE HEAD FOR ALL LAYERS
    SAVE BUDGET
 UBDSV1 SAVING "         STORAGE" ON UNIT  31 AT TIME STEP  1, STRESS PERIOD  18
 UBDSV2 SAVING "   CONSTANT HEAD" ON UNIT  31 AT TIME STEP  1, STRESS PERIOD  18
 UBDSV1 SAVING "FLOW RIGHT FACE " ON UNIT  31 AT TIME STEP  1, STRESS PERIOD  18
 UBDSV1 SAVING "FLOW FRONT FACE " ON UNIT  31 AT TIME STEP  1, STRESS PERIOD  18

 SAVING SATURATED THICKNESS AND FLOW TERMS ON UNIT  333 FOR MT3DMS
 BY THE LINK-MT3DMS PACKAGE V6.3 AT TIME STEP    1, STRESS PERIOD   18


 HEAD WILL BE SAVED ON UNIT   30 AT END OF TIME STEP   1, STRESS PERIOD   18
1
  VOLUMETRIC BUDGET FOR ENTIRE MODEL AT END OF TIME STEP  1 IN STRESS PERIOD  18
  ------------------------------------------------------------------------------

     CUMULATIVE VOLUMES      L**3       RATES FOR THIS TIME STEP      L**3/T
     ------------------                 ------------------------

           IN:                                      IN:
           ---                                      ---
             STORAGE =       1.2315E-07               STORAGE =       5.7690E-11
       CONSTANT HEAD =         750.0001         CONSTANT HEAD =           2.0833

            TOTAL IN =         750.0001              TOTAL IN =           2.0833

          OUT:                                     OUT:
          ----                                     ----
             STORAGE =       8.7570E-08               STORAGE =       7.1770E-11
       CONSTANT HEAD =         750.0013         CONSTANT HEAD =           2.0833

           TOTAL OUT =         750.0013             TOTAL OUT =           2.0833

            IN - OUT =      -1.2207E-03              IN - OUT =      -2.3842E-07

 PERCENT DISCREPANCY =           0.00     PERCENT DISCREPANCY =           0.00






          TIME SUMMARY AT END OF TIME STEP   1 IN STRESS PERIOD   18
                    SECONDS     MINUTES      HOURS       DAYS        YEARS
                    -----------------------------------------------------------
   TIME STEP LENGTH 1.72800E+06  28800.      480.00      20.000     5.47570E-02
 STRESS PERIOD TIME 1.72800E+06  28800.      480.00      20.000     5.47570E-02
         TOTAL TIME 3.11040E+07 5.18400E+05  8640.0      360.00     0.98563    
1
1
                            STRESS PERIOD NO.   19, LENGTH =   20.00000    
                            -----------------------------------------------

                              NUMBER OF TIME STEPS =     1

                               MULTIPLIER FOR DELT =     1.000

                            INITIAL TIME STEP SIZE =   20.00000    
 
 SOLVING FOR HEAD 

 OUTPUT CONTROL FOR STRESS PERIOD   19   TIME STEP   1
    SAVE HEAD FOR ALL LAYERS
    SAVE BUDGET
 UBDSV1 SAVING "         STORAGE" ON UNIT  31 AT TIME STEP  1, STRESS PERIOD  19
 UBDSV2 SAVING "   CONSTANT HEAD" ON UNIT  31 AT TIME STEP  1, STRESS PERIOD  19
 UBDSV1 SAVING "FLOW RIGHT FACE " ON UNIT  31 AT TIME STEP  1, STRESS PERIOD  19
 UBDSV1 SAVING "FLOW FRONT FACE " ON UNIT  31 AT TIME STEP  1, STRESS PERIOD  19

 SAVING SATURATED THICKNESS AND FLOW TERMS ON UNIT  333 FOR MT3DMS
 BY THE LINK-MT3DMS PACKAGE V6.3 AT TIME STEP    1, STRESS PERIOD   19


 HEAD WILL BE SAVED ON UNIT   30 AT END OF TIME STEP   1, STRESS PERIOD   19
1
  VOLUMETRIC BUDGET FOR ENTIRE MODEL AT END OF TIME STEP  1 IN STRESS PERIOD  19
  ------------------------------------------------------------------------------

     CUMULATIVE VOLUMES      L**3       RATES FOR THIS TIME STEP      L**3/T
     ------------------                 ------------------------

           IN:                                      IN:
           ---                                      ---
             STORAGE =       1.2428E-07               STORAGE =       5.6681E-11
       CONSTANT HEAD =         791.6667         CONSTANT HEAD =           2.0833

            TOTAL IN =         791.6667              TOTAL IN =           2.0833

          OUT:                                     OUT:
          ----                                     ----
             STORAGE =       8.8832E-08               STORAGE =       6.3078E-11
       CONSTANT HEAD =         791.6680         CONSTANT HEAD =           2.0833

           TOTAL OUT =         791.6680             TOTAL OUT =           2.0833

            IN - OUT =      -1.2207E-03              IN - OUT =      -2.3842E-07

 PERCENT DISCREPANCY =           0.00     PERCENT DISCREPANCY =           0.00






          TIME SUMMARY AT END OF TIME STEP   1 IN STRESS PERIOD   19
                    SECONDS     MINUTES      HOURS       DAYS        YEARS
                    -----------------------------------------------------------
   TIME STEP LENGTH 1.72800E+06  28800.      480.00      20.000     5.47570E-02
 STRESS PERIOD TIME 1.72800E+06  28800.      480.00      20.000     5.47570E-02
         TOTAL TIME 3.28320E+07 5.47200E+05  9120.0      380.00      1.0404    
1
1
                            STRESS PERIOD NO.   20, LENGTH =   20.00000    
                            -----------------------------------------------

                              NUMBER OF TIME STEPS =     1

                               MULTIPLIER FOR DELT =     1.000

                            INITIAL TIME STEP SIZE =   20.00000    
 
 SOLVING FOR HEAD 

 OUTPUT CONTROL FOR STRESS PERIOD   20   TIME STEP   1
    SAVE HEAD FOR ALL LAYERS
    SAVE BUDGET
 UBDSV1 SAVING "         STORAGE" ON UNIT  31 AT TIME STEP  1, STRESS PERIOD  20
 UBDSV2 SAVING "   CONSTANT HEAD" ON UNIT  31 AT TIME STEP  1, STRESS PERIOD  20
 UBDSV1 SAVING "FLOW RIGHT FACE " ON UNIT  31 AT TIME STEP  1, STRESS PERIOD  20
 UBDSV1 SAVING "FLOW FRONT FACE " ON UNIT  31 AT TIME STEP  1, STRESS PERIOD  20

 SAVING SATURATED THICKNESS AND FLOW TERMS ON UNIT  333 FOR MT3DMS
 BY THE LINK-MT3DMS PACKAGE V6.3 AT TIME STEP    1, STRESS PERIOD   20


 HEAD WILL BE SAVED ON UNIT   30 AT END OF TIME STEP   1, STRESS PERIOD   20
1
  VOLUMETRIC BUDGET FOR ENTIRE MODEL AT END OF TIME STEP  1 IN STRESS PERIOD  20
  ------------------------------------------------------------------------------

     CUMULATIVE VOLUMES      L**3       RATES FOR THIS TIME STEP      L**3/T
     ------------------                 ------------------------

           IN:                                      IN:
           ---                                      ---
             STORAGE =       1.2544E-07               STORAGE =       5.8101E-11
       CONSTANT HEAD =         833.3334         CONSTANT HEAD =           2.0833

            TOTAL IN =         833.3334              TOTAL IN =           2.0833

          OUT:                                     OUT:
          ----                                     ----
             STORAGE =       8.9964E-08               STORAGE =       5.6620E-11
       CONSTANT HEAD =         833.3347         CONSTANT HEAD =           2.0833

           TOTAL OUT =         833.3347             TOTAL OUT =           2.0833

            IN - OUT =      -1.2207E-03              IN - OUT =      -2.3842E-07

 PERCENT DISCREPANCY =           0.00     PERCENT DISCREPANCY =           0.00






          TIME SUMMARY AT END OF TIME STEP   1 IN STRESS PERIOD   20
                    SECONDS     MINUTES      HOURS       DAYS        YEARS
                    -----------------------------------------------------------
   TIME STEP LENGTH 1.72800E+06  28800.      480.00      20.000     5.47570E-02
 STRESS PERIOD TIME 1.72800E+06  28800.      480.00      20.000     5.47570E-02
         TOTAL TIME 3.45600E+07 5.76000E+05  9600.0      400.00      1.0951    
1
1
                            STRESS PERIOD NO.   21, LENGTH =   20.00000    
                            -----------------------------------------------

                              NUMBER OF TIME STEPS =     1

                               MULTIPLIER FOR DELT =     1.000

                            INITIAL TIME STEP SIZE =   20.00000    
 
 SOLVING FOR HEAD 

 OUTPUT CONTROL FOR STRESS PERIOD   21   TIME STEP   1
    SAVE HEAD FOR ALL LAYERS
    SAVE BUDGET
 UBDSV1 SAVING "         STORAGE" ON UNIT  31 AT TIME STEP  1, STRESS PERIOD  21
 UBDSV2 SAVING "   CONSTANT HEAD" ON UNIT  31 AT TIME STEP  1, STRESS PERIOD  21
 UBDSV1 SAVING "FLOW RIGHT FACE " ON UNIT  31 AT TIME STEP  1, STRESS PERIOD  21
 UBDSV1 SAVING "FLOW FRONT FACE " ON UNIT  31 AT TIME STEP  1, STRESS PERIOD  21

 SAVING SATURATED THICKNESS AND FLOW TERMS ON UNIT  333 FOR MT3DMS
 BY THE LINK-MT3DMS PACKAGE V6.3 AT TIME STEP    1, STRESS PERIOD   21


 HEAD WILL BE SAVED ON UNIT   30 AT END OF TIME STEP   1, STRESS PERIOD   21
1
  VOLUMETRIC BUDGET FOR ENTIRE MODEL AT END OF TIME STEP  1 IN STRESS PERIOD  21
  ------------------------------------------------------------------------------

     CUMULATIVE VOLUMES      L**3       RATES FOR THIS TIME STEP      L**3/T
     ------------------                 ------------------------

           IN:                                      IN:
           ---                                      ---
             STORAGE =       1.2646E-07               STORAGE =       5.0852E-11
       CONSTANT HEAD =         875.0001         CONSTANT HEAD =           2.0833

            TOTAL IN =         875.0001              TOTAL IN =           2.0833

          OUT:                                     OUT:
          ----                                     ----
             STORAGE =       9.1144E-08               STORAGE =       5.9010E-11
       CONSTANT HEAD =         875.0013         CONSTANT HEAD =           2.0833

           TOTAL OUT =         875.0013             TOTAL OUT =           2.0833

            IN - OUT =      -1.2207E-03              IN - OUT =      -2.3842E-07

 PERCENT DISCREPANCY =           0.00     PERCENT DISCREPANCY =           0.00






          TIME SUMMARY AT END OF TIME STEP   1 IN STRESS PERIOD   21
                    SECONDS     MINUTES      HOURS       DAYS        YEARS
                    -----------------------------------------------------------
   TIME STEP LENGTH 1.72800E+06  28800.      480.00      20.000     5.47570E-02
 STRESS PERIOD TIME 1.72800E+06  28800.      480.00      20.000     5.47570E-02
         TOTAL TIME 3.62880E+07 6.04800E+05  10080.      420.00      1.1499    
1
1
                            STRESS PERIOD NO.   22, LENGTH =   20.00000    
                            -----------------------------------------------

                              NUMBER OF TIME STEPS =     1

                               MULTIPLIER FOR DELT =     1.000

                            INITIAL TIME STEP SIZE =   20.00000    
 
 SOLVING FOR HEAD 

 OUTPUT CONTROL FOR STRESS PERIOD   22   TIME STEP   1
    SAVE HEAD FOR ALL LAYERS
    SAVE BUDGET
 UBDSV1 SAVING "         STORAGE" ON UNIT  31 AT TIME STEP  1, STRESS PERIOD  22
 UBDSV2 SAVING "   CONSTANT HEAD" ON UNIT  31 AT TIME STEP  1, STRESS PERIOD  22
 UBDSV1 SAVING "FLOW RIGHT FACE " ON UNIT  31 AT TIME STEP  1, STRESS PERIOD  22
 UBDSV1 SAVING "FLOW FRONT FACE " ON UNIT  31 AT TIME STEP  1, STRESS PERIOD  22

 SAVING SATURATED THICKNESS AND FLOW TERMS ON UNIT  333 FOR MT3DMS
 BY THE LINK-MT3DMS PACKAGE V6.3 AT TIME STEP    1, STRESS PERIOD   22


 HEAD WILL BE SAVED ON UNIT   30 AT END OF TIME STEP   1, STRESS PERIOD   22
1
  VOLUMETRIC BUDGET FOR ENTIRE MODEL AT END OF TIME STEP  1 IN STRESS PERIOD  22
  ------------------------------------------------------------------------------

     CUMULATIVE VOLUMES      L**3       RATES FOR THIS TIME STEP      L**3/T
     ------------------                 ------------------------

           IN:                                      IN:
           ---                                      ---
             STORAGE =       1.2740E-07               STORAGE =       4.7075E-11
       CONSTANT HEAD =         916.6668         CONSTANT HEAD =           2.0833

            TOTAL IN =         916.6668              TOTAL IN =           2.0833

          OUT:                                     OUT:
          ----                                     ----
             STORAGE =       9.2329E-08               STORAGE =       5.9247E-11
       CONSTANT HEAD =         916.6680         CONSTANT HEAD =           2.0833

           TOTAL OUT =         916.6680             TOTAL OUT =           2.0833

            IN - OUT =      -1.2207E-03              IN - OUT =           0.0000

 PERCENT DISCREPANCY =           0.00     PERCENT DISCREPANCY =           0.00






          TIME SUMMARY AT END OF TIME STEP   1 IN STRESS PERIOD   22
                    SECONDS     MINUTES      HOURS       DAYS        YEARS
                    -----------------------------------------------------------
   TIME STEP LENGTH 1.72800E+06  28800.      480.00      20.000     5.47570E-02
 STRESS PERIOD TIME 1.72800E+06  28800.      480.00      20.000     5.47570E-02
         TOTAL TIME 3.80160E+07 6.33600E+05  10560.      440.00      1.2047    
1
1
                            STRESS PERIOD NO.   23, LENGTH =   20.00000    
                            -----------------------------------------------

                              NUMBER OF TIME STEPS =     1

                               MULTIPLIER FOR DELT =     1.000

                            INITIAL TIME STEP SIZE =   20.00000    
 
 SOLVING FOR HEAD 

 OUTPUT CONTROL FOR STRESS PERIOD   23   TIME STEP   1
    SAVE HEAD FOR ALL LAYERS
    SAVE BUDGET
 UBDSV1 SAVING "         STORAGE" ON UNIT  31 AT TIME STEP  1, STRESS PERIOD  23
 UBDSV2 SAVING "   CONSTANT HEAD" ON UNIT  31 AT TIME STEP  1, STRESS PERIOD  23
 UBDSV1 SAVING "FLOW RIGHT FACE " ON UNIT  31 AT TIME STEP  1, STRESS PERIOD  23
 UBDSV1 SAVING "FLOW FRONT FACE " ON UNIT  31 AT TIME STEP  1, STRESS PERIOD  23

 SAVING SATURATED THICKNESS AND FLOW TERMS ON UNIT  333 FOR MT3DMS
 BY THE LINK-MT3DMS PACKAGE V6.3 AT TIME STEP    1, STRESS PERIOD   23


 HEAD WILL BE SAVED ON UNIT   30 AT END OF TIME STEP   1, STRESS PERIOD   23
1
  VOLUMETRIC BUDGET FOR ENTIRE MODEL AT END OF TIME STEP  1 IN STRESS PERIOD  23
  ------------------------------------------------------------------------------

     CUMULATIVE VOLUMES      L**3       RATES FOR THIS TIME STEP      L**3/T
     ------------------                 ------------------------

           IN:                                      IN:
           ---                                      ---
             STORAGE =       1.2842E-07               STORAGE =       5.1054E-11
       CONSTANT HEAD =         958.3335         CONSTANT HEAD =           2.0833

            TOTAL IN =         958.3335              TOTAL IN =           2.0833

          OUT:                                     OUT:
          ----                                     ----
             STORAGE =       9.3445E-08               STORAGE =       5.5788E-11
       CONSTANT HEAD =         958.3347         CONSTANT HEAD =           2.0833

           TOTAL OUT =         958.3347             TOTAL OUT =           2.0833

            IN - OUT =      -1.2207E-03              IN - OUT =      -2.3842E-07

 PERCENT DISCREPANCY =           0.00     PERCENT DISCREPANCY =           0.00






          TIME SUMMARY AT END OF TIME STEP   1 IN STRESS PERIOD   23
                    SECONDS     MINUTES      HOURS       DAYS        YEARS
                    -----------------------------------------------------------
   TIME STEP LENGTH 1.72800E+06  28800.      480.00      20.000     5.47570E-02
 STRESS PERIOD TIME 1.72800E+06  28800.      480.00      20.000     5.47570E-02
         TOTAL TIME 3.97440E+07 6.62400E+05  11040.      460.00      1.2594    
1
1
                            STRESS PERIOD NO.   24, LENGTH =   20.00000    
                            -----------------------------------------------

                              NUMBER OF TIME STEPS =     1

                               MULTIPLIER FOR DELT =     1.000

                            INITIAL TIME STEP SIZE =   20.00000    
 
 SOLVING FOR HEAD 

 OUTPUT CONTROL FOR STRESS PERIOD   24   TIME STEP   1
    SAVE HEAD FOR ALL LAYERS
    SAVE BUDGET
 UBDSV1 SAVING "         STORAGE" ON UNIT  31 AT TIME STEP  1, STRESS PERIOD  24
 UBDSV2 SAVING "   CONSTANT HEAD" ON UNIT  31 AT TIME STEP  1, STRESS PERIOD  24
 UBDSV1 SAVING "FLOW RIGHT FACE " ON UNIT  31 AT TIME STEP  1, STRESS PERIOD  24
 UBDSV1 SAVING "FLOW FRONT FACE " ON UNIT  31 AT TIME STEP  1, STRESS PERIOD  24

 SAVING SATURATED THICKNESS AND FLOW TERMS ON UNIT  333 FOR MT3DMS
 BY THE LINK-MT3DMS PACKAGE V6.3 AT TIME STEP    1, STRESS PERIOD   24


[...]
           ---                                      ---
             STORAGE =       1.9953E-07               STORAGE =       5.0865E-11
       CONSTANT HEAD =        3875.0027         CONSTANT HEAD =           2.0833

            TOTAL IN =        3875.0027              TOTAL IN =           2.0833

          OUT:                                     OUT:
          ----                                     ----
             STORAGE =       1.6508E-07               STORAGE =       5.0861E-11
       CONSTANT HEAD =        3875.0039         CONSTANT HEAD =           2.0833

           TOTAL OUT =        3875.0039             TOTAL OUT =           2.0833

            IN - OUT =      -1.2207E-03              IN - OUT =           0.0000

 PERCENT DISCREPANCY =           0.00     PERCENT DISCREPANCY =           0.00






          TIME SUMMARY AT END OF TIME STEP   1 IN STRESS PERIOD   93
                    SECONDS     MINUTES      HOURS       DAYS        YEARS
                    -----------------------------------------------------------
   TIME STEP LENGTH 1.72800E+06  28800.      480.00      20.000     5.47570E-02
 STRESS PERIOD TIME 1.72800E+06  28800.      480.00      20.000     5.47570E-02
         TOTAL TIME 1.60704E+08 2.67840E+06  44640.      1860.0      5.0924    
1
1
                            STRESS PERIOD NO.   94, LENGTH =   20.00000    
                            -----------------------------------------------

                              NUMBER OF TIME STEPS =     1

                               MULTIPLIER FOR DELT =     1.000

                            INITIAL TIME STEP SIZE =   20.00000    
 
 SOLVING FOR HEAD 

 OUTPUT CONTROL FOR STRESS PERIOD   94   TIME STEP   1
    SAVE HEAD FOR ALL LAYERS
    SAVE BUDGET
 UBDSV1 SAVING "         STORAGE" ON UNIT  31 AT TIME STEP  1, STRESS PERIOD  94
 UBDSV2 SAVING "   CONSTANT HEAD" ON UNIT  31 AT TIME STEP  1, STRESS PERIOD  94
 UBDSV1 SAVING "FLOW RIGHT FACE " ON UNIT  31 AT TIME STEP  1, STRESS PERIOD  94
 UBDSV1 SAVING "FLOW FRONT FACE " ON UNIT  31 AT TIME STEP  1, STRESS PERIOD  94

 SAVING SATURATED THICKNESS AND FLOW TERMS ON UNIT  333 FOR MT3DMS
 BY THE LINK-MT3DMS PACKAGE V6.3 AT TIME STEP    1, STRESS PERIOD   94


 HEAD WILL BE SAVED ON UNIT   30 AT END OF TIME STEP   1, STRESS PERIOD   94
1
  VOLUMETRIC BUDGET FOR ENTIRE MODEL AT END OF TIME STEP  1 IN STRESS PERIOD  94
  ------------------------------------------------------------------------------

     CUMULATIVE VOLUMES      L**3       RATES FOR THIS TIME STEP      L**3/T
     ------------------                 ------------------------

           IN:                                      IN:
           ---                                      ---
             STORAGE =       2.0055E-07               STORAGE =       5.0865E-11
       CONSTANT HEAD =        3916.6694         CONSTANT HEAD =           2.0833

            TOTAL IN =        3916.6694              TOTAL IN =           2.0833

          OUT:                                     OUT:
          ----                                     ----
             STORAGE =       1.6610E-07               STORAGE =       5.0861E-11
       CONSTANT HEAD =        3916.6707         CONSTANT HEAD =           2.0833

           TOTAL OUT =        3916.6707             TOTAL OUT =           2.0833

            IN - OUT =      -1.2207E-03              IN - OUT =           0.0000

 PERCENT DISCREPANCY =           0.00     PERCENT DISCREPANCY =           0.00






          TIME SUMMARY AT END OF TIME STEP   1 IN STRESS PERIOD   94
                    SECONDS     MINUTES      HOURS       DAYS        YEARS
                    -----------------------------------------------------------
   TIME STEP LENGTH 1.72800E+06  28800.      480.00      20.000     5.47570E-02
 STRESS PERIOD TIME 1.72800E+06  28800.      480.00      20.000     5.47570E-02
         TOTAL TIME 1.62432E+08 2.70720E+06  45120.      1880.0      5.1472    
1
1
                            STRESS PERIOD NO.   95, LENGTH =   20.00000    
                            -----------------------------------------------

                              NUMBER OF TIME STEPS =     1

                               MULTIPLIER FOR DELT =     1.000

                            INITIAL TIME STEP SIZE =   20.00000    
 
 SOLVING FOR HEAD 

 OUTPUT CONTROL FOR STRESS PERIOD   95   TIME STEP   1
    SAVE HEAD FOR ALL LAYERS
    SAVE BUDGET
 UBDSV1 SAVING "         STORAGE" ON UNIT  31 AT TIME STEP  1, STRESS PERIOD  95
 UBDSV2 SAVING "   CONSTANT HEAD" ON UNIT  31 AT TIME STEP  1, STRESS PERIOD  95
 UBDSV1 SAVING "FLOW RIGHT FACE " ON UNIT  31 AT TIME STEP  1, STRESS PERIOD  95
 UBDSV1 SAVING "FLOW FRONT FACE " ON UNIT  31 AT TIME STEP  1, STRESS PERIOD  95

 SAVING SATURATED THICKNESS AND FLOW TERMS ON UNIT  333 FOR MT3DMS
 BY THE LINK-MT3DMS PACKAGE V6.3 AT TIME STEP    1, STRESS PERIOD   95


 HEAD WILL BE SAVED ON UNIT   30 AT END OF TIME STEP   1, STRESS PERIOD   95
1
  VOLUMETRIC BUDGET FOR ENTIRE MODEL AT END OF TIME STEP  1 IN STRESS PERIOD  95
  ------------------------------------------------------------------------------

     CUMULATIVE VOLUMES      L**3       RATES FOR THIS TIME STEP      L**3/T
     ------------------                 ------------------------

           IN:                                      IN:
           ---                                      ---
             STORAGE =       2.0156E-07               STORAGE =       5.0865E-11
       CONSTANT HEAD =        3958.3362         CONSTANT HEAD =           2.0833

            TOTAL IN =        3958.3362              TOTAL IN =           2.0833

          OUT:                                     OUT:
          ----                                     ----
             STORAGE =       1.6711E-07               STORAGE =       5.0861E-11
       CONSTANT HEAD =        3958.3374         CONSTANT HEAD =           2.0833

           TOTAL OUT =        3958.3374             TOTAL OUT =           2.0833

            IN - OUT =      -1.2207E-03              IN - OUT =           0.0000

 PERCENT DISCREPANCY =           0.00     PERCENT DISCREPANCY =           0.00






          TIME SUMMARY AT END OF TIME STEP   1 IN STRESS PERIOD   95
                    SECONDS     MINUTES      HOURS       DAYS        YEARS
                    -----------------------------------------------------------
   TIME STEP LENGTH 1.72800E+06  28800.      480.00      20.000     5.47570E-02
 STRESS PERIOD TIME 1.72800E+06  28800.      480.00      20.000     5.47570E-02
         TOTAL TIME 1.64160E+08 2.73600E+06  45600.      1900.0      5.2019    
1
1
                            STRESS PERIOD NO.   96, LENGTH =   20.00000    
                            -----------------------------------------------

                              NUMBER OF TIME STEPS =     1

                               MULTIPLIER FOR DELT =     1.000

                            INITIAL TIME STEP SIZE =   20.00000    
 
 SOLVING FOR HEAD 

 OUTPUT CONTROL FOR STRESS PERIOD   96   TIME STEP   1
    SAVE HEAD FOR ALL LAYERS
    SAVE BUDGET
 UBDSV1 SAVING "         STORAGE" ON UNIT  31 AT TIME STEP  1, STRESS PERIOD  96
 UBDSV2 SAVING "   CONSTANT HEAD" ON UNIT  31 AT TIME STEP  1, STRESS PERIOD  96
 UBDSV1 SAVING "FLOW RIGHT FACE " ON UNIT  31 AT TIME STEP  1, STRESS PERIOD  96
 UBDSV1 SAVING "FLOW FRONT FACE " ON UNIT  31 AT TIME STEP  1, STRESS PERIOD  96

 SAVING SATURATED THICKNESS AND FLOW TERMS ON UNIT  333 FOR MT3DMS
 BY THE LINK-MT3DMS PACKAGE V6.3 AT TIME STEP    1, STRESS PERIOD   96


 HEAD WILL BE SAVED ON UNIT   30 AT END OF TIME STEP   1, STRESS PERIOD   96
1
  VOLUMETRIC BUDGET FOR ENTIRE MODEL AT END OF TIME STEP  1 IN STRESS PERIOD  96
  ------------------------------------------------------------------------------

     CUMULATIVE VOLUMES      L**3       RATES FOR THIS TIME STEP      L**3/T
     ------------------                 ------------------------

           IN:                                      IN:
           ---                                      ---
             STORAGE =       2.0258E-07               STORAGE =       5.0865E-11
       CONSTANT HEAD =        4000.0029         CONSTANT HEAD =           2.0833

            TOTAL IN =        4000.0029              TOTAL IN =           2.0833

          OUT:                                     OUT:
          ----                                     ----
             STORAGE =       1.6813E-07               STORAGE =       5.0861E-11
       CONSTANT HEAD =        4000.0042         CONSTANT HEAD =           2.0833

           TOTAL OUT =        4000.0042             TOTAL OUT =           2.0833

            IN - OUT =      -1.2207E-03              IN - OUT =           0.0000

 PERCENT DISCREPANCY =           0.00     PERCENT DISCREPANCY =           0.00






          TIME SUMMARY AT END OF TIME STEP   1 IN STRESS PERIOD   96
                    SECONDS     MINUTES      HOURS       DAYS        YEARS
                    -----------------------------------------------------------
   TIME STEP LENGTH 1.72800E+06  28800.      480.00      20.000     5.47570E-02
 STRESS PERIOD TIME 1.72800E+06  28800.      480.00      20.000     5.47570E-02
         TOTAL TIME 1.65888E+08 2.76480E+06  46080.      1920.0      5.2567    
1
1
                            STRESS PERIOD NO.   97, LENGTH =   20.00000    
                            -----------------------------------------------

                              NUMBER OF TIME STEPS =     1

                               MULTIPLIER FOR DELT =     1.000

                            INITIAL TIME STEP SIZE =   20.00000    
 
 SOLVING FOR HEAD 

 OUTPUT CONTROL FOR STRESS PERIOD   97   TIME STEP   1
    SAVE HEAD FOR ALL LAYERS
    SAVE BUDGET
 UBDSV1 SAVING "         STORAGE" ON UNIT  31 AT TIME STEP  1, STRESS PERIOD  97
 UBDSV2 SAVING "   CONSTANT HEAD" ON UNIT  31 AT TIME STEP  1, STRESS PERIOD  97
 UBDSV1 SAVING "FLOW RIGHT FACE " ON UNIT  31 AT TIME STEP  1, STRESS PERIOD  97
 UBDSV1 SAVING "FLOW FRONT FACE " ON UNIT  31 AT TIME STEP  1, STRESS PERIOD  97

 SAVING SATURATED THICKNESS AND FLOW TERMS ON UNIT  333 FOR MT3DMS
 BY THE LINK-MT3DMS PACKAGE V6.3 AT TIME STEP    1, STRESS PERIOD   97


 HEAD WILL BE SAVED ON UNIT   30 AT END OF TIME STEP   1, STRESS PERIOD   97
1
  VOLUMETRIC BUDGET FOR ENTIRE MODEL AT END OF TIME STEP  1 IN STRESS PERIOD  97
  ------------------------------------------------------------------------------

     CUMULATIVE VOLUMES      L**3       RATES FOR THIS TIME STEP      L**3/T
     ------------------                 ------------------------

           IN:                                      IN:
           ---                                      ---
             STORAGE =       2.0360E-07               STORAGE =       5.0865E-11
       CONSTANT HEAD =        4041.6697         CONSTANT HEAD =           2.0833

            TOTAL IN =        4041.6697              TOTAL IN =           2.0833

          OUT:                                     OUT:
          ----                                     ----
             STORAGE =       1.6915E-07               STORAGE =       5.0861E-11
       CONSTANT HEAD =        4041.6709         CONSTANT HEAD =           2.0833

           TOTAL OUT =        4041.6709             TOTAL OUT =           2.0833

            IN - OUT =      -1.2207E-03              IN - OUT =           0.0000

 PERCENT DISCREPANCY =           0.00     PERCENT DISCREPANCY =           0.00






          TIME SUMMARY AT END OF TIME STEP   1 IN STRESS PERIOD   97
                    SECONDS     MINUTES      HOURS       DAYS        YEARS
                    -----------------------------------------------------------
   TIME STEP LENGTH 1.72800E+06  28800.      480.00      20.000     5.47570E-02
 STRESS PERIOD TIME 1.72800E+06  28800.      480.00      20.000     5.47570E-02
         TOTAL TIME 1.67616E+08 2.79360E+06  46560.      1940.0      5.3114    
1
1
                            STRESS PERIOD NO.   98, LENGTH =   20.00000    
                            -----------------------------------------------

                              NUMBER OF TIME STEPS =     1

                               MULTIPLIER FOR DELT =     1.000

                            INITIAL TIME STEP SIZE =   20.00000    
 
 SOLVING FOR HEAD 

 OUTPUT CONTROL FOR STRESS PERIOD   98   TIME STEP   1
    SAVE HEAD FOR ALL LAYERS
    SAVE BUDGET
 UBDSV1 SAVING "         STORAGE" ON UNIT  31 AT TIME STEP  1, STRESS PERIOD  98
 UBDSV2 SAVING "   CONSTANT HEAD" ON UNIT  31 AT TIME STEP  1, STRESS PERIOD  98
 UBDSV1 SAVING "FLOW RIGHT FACE " ON UNIT  31 AT TIME STEP  1, STRESS PERIOD  98
 UBDSV1 SAVING "FLOW FRONT FACE " ON UNIT  31 AT TIME STEP  1, STRESS PERIOD  98

 SAVING SATURATED THICKNESS AND FLOW TERMS ON UNIT  333 FOR MT3DMS
 BY THE LINK-MT3DMS PACKAGE V6.3 AT TIME STEP    1, STRESS PERIOD   98


 HEAD WILL BE SAVED ON UNIT   30 AT END OF TIME STEP   1, STRESS PERIOD   98
1
  VOLUMETRIC BUDGET FOR ENTIRE MODEL AT END OF TIME STEP  1 IN STRESS PERIOD  98
  ------------------------------------------------------------------------------

     CUMULATIVE VOLUMES      L**3       RATES FOR THIS TIME STEP      L**3/T
     ------------------                 ------------------------

           IN:                                      IN:
           ---                                      ---
             STORAGE =       2.0461E-07               STORAGE =       5.0865E-11
       CONSTANT HEAD =        4083.3364         CONSTANT HEAD =           2.0833

            TOTAL IN =        4083.3364              TOTAL IN =           2.0833

          OUT:                                     OUT:
          ----                                     ----
             STORAGE =       1.7016E-07               STORAGE =       5.0861E-11
       CONSTANT HEAD =        4083.3376         CONSTANT HEAD =           2.0833

           TOTAL OUT =        4083.3376             TOTAL OUT =           2.0833

            IN - OUT =      -1.2207E-03              IN - OUT =           0.0000

 PERCENT DISCREPANCY =           0.00     PERCENT DISCREPANCY =           0.00






          TIME SUMMARY AT END OF TIME STEP   1 IN STRESS PERIOD   98
                    SECONDS     MINUTES      HOURS       DAYS        YEARS
                    -----------------------------------------------------------
   TIME STEP LENGTH 1.72800E+06  28800.      480.00      20.000     5.47570E-02
 STRESS PERIOD TIME 1.72800E+06  28800.      480.00      20.000     5.47570E-02
         TOTAL TIME 1.69344E+08 2.82240E+06  47040.      1960.0      5.3662    
1
1
                            STRESS PERIOD NO.   99, LENGTH =   20.00000    
                            -----------------------------------------------

                              NUMBER OF TIME STEPS =     1

                               MULTIPLIER FOR DELT =     1.000

                            INITIAL TIME STEP SIZE =   20.00000    
 
 SOLVING FOR HEAD 

 OUTPUT CONTROL FOR STRESS PERIOD   99   TIME STEP   1
    SAVE HEAD FOR ALL LAYERS
    SAVE BUDGET
 UBDSV1 SAVING "         STORAGE" ON UNIT  31 AT TIME STEP  1, STRESS PERIOD  99
 UBDSV2 SAVING "   CONSTANT HEAD" ON UNIT  31 AT TIME STEP  1, STRESS PERIOD  99
 UBDSV1 SAVING "FLOW RIGHT FACE " ON UNIT  31 AT TIME STEP  1, STRESS PERIOD  99
 UBDSV1 SAVING "FLOW FRONT FACE " ON UNIT  31 AT TIME STEP  1, STRESS PERIOD  99

 SAVING SATURATED THICKNESS AND FLOW TERMS ON UNIT  333 FOR MT3DMS
 BY THE LINK-MT3DMS PACKAGE V6.3 AT TIME STEP    1, STRESS PERIOD   99


 HEAD WILL BE SAVED ON UNIT   30 AT END OF TIME STEP   1, STRESS PERIOD   99
1
  VOLUMETRIC BUDGET FOR ENTIRE MODEL AT END OF TIME STEP  1 IN STRESS PERIOD  99
  ------------------------------------------------------------------------------

     CUMULATIVE VOLUMES      L**3       RATES FOR THIS TIME STEP      L**3/T
     ------------------                 ------------------------

           IN:                                      IN:
           ---                                      ---
             STORAGE =       2.0563E-07               STORAGE =       5.0865E-11
       CONSTANT HEAD =        4125.0029         CONSTANT HEAD =           2.0833

            TOTAL IN =        4125.0029              TOTAL IN =           2.0833

          OUT:                                     OUT:
          ----                                     ----
             STORAGE =       1.7118E-07               STORAGE =       5.0861E-11
       CONSTANT HEAD =        4125.0044         CONSTANT HEAD =           2.0833

           TOTAL OUT =        4125.0044             TOTAL OUT =           2.0833

            IN - OUT =      -1.4648E-03              IN - OUT =           0.0000

 PERCENT DISCREPANCY =           0.00     PERCENT DISCREPANCY =           0.00






          TIME SUMMARY AT END OF TIME STEP   1 IN STRESS PERIOD   99
                    SECONDS     MINUTES      HOURS       DAYS        YEARS
                    -----------------------------------------------------------
   TIME STEP LENGTH 1.72800E+06  28800.      480.00      20.000     5.47570E-02
 STRESS PERIOD TIME 1.72800E+06  28800.      480.00      20.000     5.47570E-02
         TOTAL TIME 1.71072E+08 2.85120E+06  47520.      1980.0      5.4209    
1
1
                            STRESS PERIOD NO.  100, LENGTH =   20.00000    
                            -----------------------------------------------

                              NUMBER OF TIME STEPS =     1

                               MULTIPLIER FOR DELT =     1.000

                            INITIAL TIME STEP SIZE =   20.00000    
 
 SOLVING FOR HEAD 

 OUTPUT CONTROL FOR STRESS PERIOD  100   TIME STEP   1
    SAVE HEAD FOR ALL LAYERS
    SAVE BUDGET
 UBDSV1 SAVING "         STORAGE" ON UNIT  31 AT TIME STEP  1, STRESS PERIOD 100
 UBDSV2 SAVING "   CONSTANT HEAD" ON UNIT  31 AT TIME STEP  1, STRESS PERIOD 100
 UBDSV1 SAVING "FLOW RIGHT FACE " ON UNIT  31 AT TIME STEP  1, STRESS PERIOD 100
 UBDSV1 SAVING "FLOW FRONT FACE " ON UNIT  31 AT TIME STEP  1, STRESS PERIOD 100

 SAVING SATURATED THICKNESS AND FLOW TERMS ON UNIT  333 FOR MT3DMS
 BY THE LINK-MT3DMS PACKAGE V6.3 AT TIME STEP    1, STRESS PERIOD  100


 HEAD WILL BE SAVED ON UNIT   30 AT END OF TIME STEP   1, STRESS PERIOD  100
1
  VOLUMETRIC BUDGET FOR ENTIRE MODEL AT END OF TIME STEP  1 IN STRESS PERIOD 100
  ------------------------------------------------------------------------------

     CUMULATIVE VOLUMES      L**3       RATES FOR THIS TIME STEP      L**3/T
     ------------------                 ------------------------

           IN:                                      IN:
           ---                                      ---
             STORAGE =       2.0665E-07               STORAGE =       5.0865E-11
       CONSTANT HEAD =        4166.6694         CONSTANT HEAD =           2.0833

            TOTAL IN =        4166.6694              TOTAL IN =           2.0833

          OUT:                                     OUT:
          ----                                     ----
             STORAGE =       1.7220E-07               STORAGE =       5.0861E-11
       CONSTANT HEAD =        4166.6709         CONSTANT HEAD =           2.0833

           TOTAL OUT =        4166.6709             TOTAL OUT =           2.0833

            IN - OUT =      -1.4648E-03              IN - OUT =           0.0000

 PERCENT DISCREPANCY =           0.00     PERCENT DISCREPANCY =           0.00






          TIME SUMMARY AT END OF TIME STEP   1 IN STRESS PERIOD  100
                    SECONDS     MINUTES      HOURS       DAYS        YEARS
                    -----------------------------------------------------------
   TIME STEP LENGTH 1.72800E+06  28800.      480.00      20.000     5.47570E-02
 STRESS PERIOD TIME 1.72800E+06  28800.      480.00      20.000     5.47570E-02
         TOTAL TIME 1.72800E+08 2.88000E+06  48000.      2000.0      5.4757    
1
