                                   MODFLOW 6
                U.S. GEOLOGICAL SURVEY MODULAR HYDROLOGIC MODEL
                          GROUNDWATER FLOW MODEL (GWF)
                VERSION 6.5.0.dev0+prt (preliminary) 10/07/2023
                               ***DEVELOP MODE***

   MODFLOW 6 compiled Oct 07 2023 02:19:02 with Intel(R) Fortran Intel(R) 64
   Compiler Classic for applications running on Intel(R) 64, Version 2021.7.0
                             Build 20220726_000000

This software is preliminary or provisional and is subject to 
revision. It is being provided to meet the need for timely best 
science. The software has not received final approval by the U.S. 
Geological Survey (USGS). No warranty, expressed or implied, is made 
by the USGS or the U.S. Government as to the functionality of the 
software and related material nor shall the fact of release 
constitute any such warranty. The software is provided on the 
condition that neither the USGS nor the U.S. Government shall be held 
liable for any damages resulting from the authorized or unauthorized 
use of the software.


As a work of the United States Government, this USGS product is 
in the public domain within the United States. You can copy, 
modify, distribute, and perform the work, even for commercial 
purposes, all without asking permission. Additionally, USGS 
waives copyright and related rights in the work worldwide 
through CC0 1.0 Universal Public Domain Dedication 
(https://creativecommons.org/publicdomain/zero/1.0/).

The following GNU Lesser General Public License (LGPL) libraries
are used in this USGS product:

    SPARSKIT version 2.0
      ilut, luson, and qsplit 
      (https://www-users.cse.umn.edu/~saad/software/SPARSKIT/)

    RCM - Reverse Cuthill McKee Ordering
      (https://people.math.sc.edu/Burkardt/f_src/rcm/rcm.html)

    BLAS - Basic Linear Algebra Subprograms Level 1
      (https://people.math.sc.edu/Burkardt/f_src/blas1_d/blas1_d.html)

    SPARSEKIT - Sparse Matrix Utility Package
      amux, dperm, dvperm, rperm, and cperm
      (https://people.sc.fsu.edu/~jburkardt/f77_src/sparsekit/sparsekit.html)

The following BSD-3 License libraries are used in this USGS product:

    Modern Fortran DAG Library
      Copyright (c) 2018, Jacob Williams
      All rights reserved.
      (https://github.com/jacobwilliams/daglib)

MODFLOW 6 compiler options: /Isrc\libmf6core.a.p /Isrc /I..\src
/Isrc\libmf6_external.a.p /MTd /nologo /warn:general /warn:truncated_source
/stand:f08 /Zi /traceback /O2 /fpe:0 /heap-arrays:0 /traceback /fpp
/Qdiag-disable:7416 /Qdiag-disable:7025 /Qdiag-disable:5268
/Fdsrc\libmf6core.a.p\Utilities_compilerversion.F90.pdb
/module:src\libmf6core.a.p
/Fosrc/libmf6core.a.p/Utilities_compilerversion.F90.obj /c

System command used to initiate simulation:
c:\Users\portega\anaconda3\envs\mf6rtm\python.exe -m ipykernel_launcher --f=c:\Users\portega\AppData\Roaming\jupyter\runtime\kernel-v2-11124qIDPP9A4COte.json

MODFLOW was compiled using uniform precision.

Real Variables
  KIND: 8
  TINY (smallest non-zero value):    2.225074-308
  HUGE (largest value):    1.797693+308
  PRECISION: 15
  SIZE IN BITS: 64

Integer Variables
  KIND: 4
  HUGE (largest value): 2147483647
  SIZE IN BITS: 32

Long Integer Variables
  KIND: 8
  HUGE (largest value): 9223372036854775807
  SIZE IN BITS: 64

Logical Variables
  KIND: 4
  SIZE IN BITS: 32
 
 NAMEFILE OPTIONS:
    FLOWS WILL BE SAVED TO BUDGET FILE SPECIFIED IN OUTPUT CONTROL
 END NAMEFILE OPTIONS:

 DIS -- STRUCTURED GRID DISCRETIZATION PACKAGE, VERSION 2 : 3/27/2014 - INPUT READ FROM MEMPATH: __INPUT__/GWF/DIS                                 


 NPF -- NODE PROPERTY FLOW PACKAGE, VERSION 1, 3/30/2015 INPUT READ FROM MEMPATH: __INPUT__/GWF/NPF                                 

 Setting Discretization Options
    Model length unit [0=UND, 1=FEET, 2=METERS, 3=CENTIMETERS] set as 2
 End Setting Discretization Options

 Setting Discretization Dimensions
    NLAY = 1
    NROW = 1
    NCOL = 50
 End Setting Discretization Dimensions

 Setting Discretization Griddata
    DELR set from input file
    DELC set from input file
    TOP set from input file
    BOTM set from input file
    IDOMAIN set from input file
 End Setting Discretization Griddata

 Setting NPF Options
    Cell-by-cell flow information will be saved to binary file whenever ICBCFL is not zero.
    Specific discharge will be calculated at cell centers and written to DATA-SPDIS in budget file when requested.
    Saturation will be written to DATA-SAT in budget file when requested.
 End Setting NPF Options

 Setting NPF Griddata
    ICELLTYPE set from input file
    K set from input file
    K33 set from input file
    K22 not provided.  Setting K22 = K.
 End Setting NPF Griddata


 WEL   -- WEL PACKAGE, VERSION 8, 2/22/2014 INPUT READ FROM MEMPATH: __INPUT__/GWF/WEL                                 

 PROCESSING WEL BASE OPTIONS
    FLOWS WILL BE SAVED TO BUDGET FILE SPECIFIED IN OUTPUT CONTROL
 END OF WEL BASE OPTIONS

 PROCESSING WEL OPTIONS
 END OF WEL OPTIONS

 PROCESSING WEL BASE DIMENSIONS
    MAXBOUND =       1
 END OF WEL BASE DIMENSIONS

 CHD   -- CHD PACKAGE, VERSION 8, 2/22/2014 INPUT READ FROM MEMPATH: __INPUT__/GWF/CHD                                 

 PROCESSING CHD BASE OPTIONS
 END OF CHD BASE OPTIONS

 PROCESSING CHD BASE DIMENSIONS
    MAXBOUND =       1
 END OF CHD BASE DIMENSIONS

 IC -- INITIAL CONDITIONS PACKAGE, VERSION 8, 3/28/2015 INPUT READ FROM UNIT 1014
 # File generated by Flopy version 3.5.0.dev0 on 05/31/2024 at 08:42:52.
 PROCESSING GRIDDATA
 END PROCESSING GRIDDATA
    BINARY GRID INFORMATION WILL BE WRITTEN TO:
      UNIT NUMBER: 1149
      FILE NAME: gwf.dis.grb

 OPENED gwf.dis.grb
 FILE TYPE:DATA(BINARY)   UNIT 1149   STATUS:REPLACE             
 FORMAT:UNFORMATTED            ACCESS:STREAM              
 ACTION:READWRITE           

      THE LAST TIME STEP WILL BE PRINTED
      THE LAST TIME STEP WILL BE PRINTED
 # File generated by Flopy version 3.5.0.dev0 on 05/31/2024 at 08:42:52.

 PROCESSING OC OPTIONS

    BUDGET INFORMATION WILL BE WRITTEN TO:
      UNIT NUMBER: 1150
      FILE NAME: gwf.cbb

 OPENED gwf.cbb
 FILE TYPE:DATA(BINARY)   UNIT 1150   STATUS:REPLACE             
 FORMAT:UNFORMATTED            ACCESS:STREAM              
 ACTION:READWRITE           

    HEAD INFORMATION WILL BE WRITTEN TO:
      UNIT NUMBER: 1151
      FILE NAME: gwf.hds

 OPENED gwf.hds
 FILE TYPE:DATA(BINARY)   UNIT 1151   STATUS:REPLACE             
 FORMAT:UNFORMATTED            ACCESS:STREAM              
 ACTION:READWRITE           

 END OF OC OPTIONS

start timestep kper="1" kstp="1" mode="normal"


 BEGIN READING OUTPUT CONTROL FOR STRESS PERIOD 1
      ALL TIME STEPS WILL BE SAVED
      ALL TIME STEPS WILL BE SAVED
      THE LAST TIME STEP WILL BE PRINTED
      THE LAST TIME STEP WILL BE PRINTED

 END READING OUTPUT CONTROL FOR STRESS PERIOD 1
 UBDSV1 SAVING     FLOW-JA-FACE ON UNIT   1150 AT TIME STEP      1, STRESS PERIOD      1
 UBDSV06 SAVING       DATA-SPDIS IN MODEL GWF              PACKAGE NPF             CONNECTED TO MODEL GWF              PACKAGE NPF              ON UNIT   1150 AT TIME STEP      1, STRESS PERIOD      1
 UBDSV06 SAVING         DATA-SAT IN MODEL GWF              PACKAGE NPF             CONNECTED TO MODEL GWF              PACKAGE NPF              ON UNIT   1150 AT TIME STEP      1, STRESS PERIOD      1
 UBDSV06 SAVING              WEL IN MODEL GWF              PACKAGE GWF             CONNECTED TO MODEL GWF              PACKAGE WEL              ON UNIT   1150 AT TIME STEP      1, STRESS PERIOD      1
 UBDSV06 SAVING              CHD IN MODEL GWF              PACKAGE GWF             CONNECTED TO MODEL GWF              PACKAGE CHD              ON UNIT   1150 AT TIME STEP      1, STRESS PERIOD      1

 HEAD WILL BE SAVED ON UNIT 1151 AT END OF TIME STEP    1, STRESS PERIOD    1

end timestep


start timestep kper="1" kstp="2" mode="normal"

 UBDSV1 SAVING     FLOW-JA-FACE ON UNIT   1150 AT TIME STEP      2, STRESS PERIOD      1
 UBDSV06 SAVING       DATA-SPDIS IN MODEL GWF              PACKAGE NPF             CONNECTED TO MODEL GWF              PACKAGE NPF              ON UNIT   1150 AT TIME STEP      2, STRESS PERIOD      1
 UBDSV06 SAVING         DATA-SAT IN MODEL GWF              PACKAGE NPF             CONNECTED TO MODEL GWF              PACKAGE NPF              ON UNIT   1150 AT TIME STEP      2, STRESS PERIOD      1
 UBDSV06 SAVING              WEL IN MODEL GWF              PACKAGE GWF             CONNECTED TO MODEL GWF              PACKAGE WEL              ON UNIT   1150 AT TIME STEP      2, STRESS PERIOD      1
 UBDSV06 SAVING              CHD IN MODEL GWF              PACKAGE GWF             CONNECTED TO MODEL GWF              PACKAGE CHD              ON UNIT   1150 AT TIME STEP      2, STRESS PERIOD      1

 HEAD WILL BE SAVED ON UNIT 1151 AT END OF TIME STEP    2, STRESS PERIOD    1

end timestep


start timestep kper="1" kstp="3" mode="normal"

 UBDSV1 SAVING     FLOW-JA-FACE ON UNIT   1150 AT TIME STEP      3, STRESS PERIOD      1
 UBDSV06 SAVING       DATA-SPDIS IN MODEL GWF              PACKAGE NPF             CONNECTED TO MODEL GWF              PACKAGE NPF              ON UNIT   1150 AT TIME STEP      3, STRESS PERIOD      1
 UBDSV06 SAVING         DATA-SAT IN MODEL GWF              PACKAGE NPF             CONNECTED TO MODEL GWF              PACKAGE NPF              ON UNIT   1150 AT TIME STEP      3, STRESS PERIOD      1
 UBDSV06 SAVING              WEL IN MODEL GWF              PACKAGE GWF             CONNECTED TO MODEL GWF              PACKAGE WEL              ON UNIT   1150 AT TIME STEP      3, STRESS PERIOD      1
 UBDSV06 SAVING              CHD IN MODEL GWF              PACKAGE GWF             CONNECTED TO MODEL GWF              PACKAGE CHD              ON UNIT   1150 AT TIME STEP      3, STRESS PERIOD      1

 HEAD WILL BE SAVED ON UNIT 1151 AT END OF TIME STEP    3, STRESS PERIOD    1

end timestep


start timestep kper="1" kstp="4" mode="normal"

 UBDSV1 SAVING     FLOW-JA-FACE ON UNIT   1150 AT TIME STEP      4, STRESS PERIOD      1
 UBDSV06 SAVING       DATA-SPDIS IN MODEL GWF              PACKAGE NPF             CONNECTED TO MODEL GWF              PACKAGE NPF              ON UNIT   1150 AT TIME STEP      4, STRESS PERIOD      1
 UBDSV06 SAVING         DATA-SAT IN MODEL GWF              PACKAGE NPF             CONNECTED TO MODEL GWF              PACKAGE NPF              ON UNIT   1150 AT TIME STEP      4, STRESS PERIOD      1
 UBDSV06 SAVING              WEL IN MODEL GWF              PACKAGE GWF             CONNECTED TO MODEL GWF              PACKAGE WEL              ON UNIT   1150 AT TIME STEP      4, STRESS PERIOD      1
 UBDSV06 SAVING              CHD IN MODEL GWF              PACKAGE GWF             CONNECTED TO MODEL GWF              PACKAGE CHD              ON UNIT   1150 AT TIME STEP      4, STRESS PERIOD      1

 HEAD WILL BE SAVED ON UNIT 1151 AT END OF TIME STEP    4, STRESS PERIOD    1

end timestep


start timestep kper="1" kstp="5" mode="normal"

 UBDSV1 SAVING     FLOW-JA-FACE ON UNIT   1150 AT TIME STEP      5, STRESS PERIOD      1
 UBDSV06 SAVING       DATA-SPDIS IN MODEL GWF              PACKAGE NPF             CONNECTED TO MODEL GWF              PACKAGE NPF              ON UNIT   1150 AT TIME STEP      5, STRESS PERIOD      1
 UBDSV06 SAVING         DATA-SAT IN MODEL GWF              PACKAGE NPF             CONNECTED TO MODEL GWF              PACKAGE NPF              ON UNIT   1150 AT TIME STEP      5, STRESS PERIOD      1
 UBDSV06 SAVING              WEL IN MODEL GWF              PACKAGE GWF             CONNECTED TO MODEL GWF              PACKAGE WEL              ON UNIT   1150 AT TIME STEP      5, STRESS PERIOD      1
 UBDSV06 SAVING              CHD IN MODEL GWF              PACKAGE GWF             CONNECTED TO MODEL GWF              PACKAGE CHD              ON UNIT   1150 AT TIME STEP      5, STRESS PERIOD      1

 HEAD WILL BE SAVED ON UNIT 1151 AT END OF TIME STEP    5, STRESS PERIOD    1

end timestep


start timestep kper="1" kstp="6" mode="normal"

 UBDSV1 SAVING     FLOW-JA-FACE ON UNIT   1150 AT TIME STEP      6, STRESS PERIOD      1
 UBDSV06 SAVING       DATA-SPDIS IN MODEL GWF              PACKAGE NPF             CONNECTED TO MODEL GWF              PACKAGE NPF              ON UNIT   1150 AT TIME STEP      6, STRESS PERIOD      1
 UBDSV06 SAVING         DATA-SAT IN MODEL GWF              PACKAGE NPF             CONNECTED TO MODEL GWF              PACKAGE NPF              ON UNIT   1150 AT TIME STEP      6, STRESS PERIOD      1
 UBDSV06 SAVING              WEL IN MODEL GWF              PACKAGE GWF             CONNECTED TO MODEL GWF              PACKAGE WEL              ON UNIT   1150 AT TIME STEP      6, STRESS PERIOD      1
 UBDSV06 SAVING              CHD IN MODEL GWF              PACKAGE GWF             CONNECTED TO MODEL GWF              PACKAGE CHD              ON UNIT   1150 AT TIME STEP      6, STRESS PERIOD      1

 HEAD WILL BE SAVED ON UNIT 1151 AT END OF TIME STEP    6, STRESS PERIOD    1

end timestep


start timestep kper="1" kstp="7" mode="normal"

 UBDSV1 SAVING     FLOW-JA-FACE ON UNIT   1150 AT TIME STEP      7, STRESS PERIOD      1
 UBDSV06 SAVING       DATA-SPDIS IN MODEL GWF              PACKAGE NPF             CONNECTED TO MODEL GWF              PACKAGE NPF              ON UNIT   1150 AT TIME STEP      7, STRESS PERIOD      1
 UBDSV06 SAVING         DATA-SAT IN MODEL GWF              PACKAGE NPF             CONNECTED TO MODEL GWF              PACKAGE NPF              ON UNIT   1150 AT TIME STEP      7, STRESS PERIOD      1
 UBDSV06 SAVING              WEL IN MODEL GWF              PACKAGE GWF             CONNECTED TO MODEL GWF              PACKAGE WEL              ON UNIT   1150 AT TIME STEP      7, STRESS PERIOD      1
 UBDSV06 SAVING              CHD IN MODEL GWF              PACKAGE GWF             CONNECTED TO MODEL GWF              PACKAGE CHD              ON UNIT   1150 AT TIME STEP      7, STRESS PERIOD      1

 HEAD WILL BE SAVED ON UNIT 1151 AT END OF TIME STEP    7, STRESS PERIOD    1

end timestep


start timestep kper="1" kstp="8" mode="normal"

 UBDSV1 SAVING     FLOW-JA-FACE ON UNIT   1150 AT TIME STEP      8, STRESS PERIOD      1
 UBDSV06 SAVING       DATA-SPDIS IN MODEL GWF              PACKAGE NPF             CONNECTED TO MODEL GWF              PACKAGE NPF              ON UNIT   1150 AT TIME STEP      8, STRESS PERIOD      1
 UBDSV06 SAVING         DATA-SAT IN MODEL GWF              PACKAGE NPF             CONNECTED TO MODEL GWF              PACKAGE NPF              ON UNIT   1150 AT TIME STEP      8, STRESS PERIOD      1
 UBDSV06 SAVING              WEL IN MODEL GWF              PACKAGE GWF             CONNECTED TO MODEL GWF              PACKAGE WEL              ON UNIT   1150 AT TIME STEP      8, STRESS PERIOD      1
 UBDSV06 SAVING              CHD IN MODEL GWF              PACKAGE GWF             CONNECTED TO MODEL GWF              PACKAGE CHD              ON UNIT   1150 AT TIME STEP      8, STRESS PERIOD      1

 HEAD WILL BE SAVED ON UNIT 1151 AT END OF TIME STEP    8, STRESS PERIOD    1

end timestep


start timestep kper="1" kstp="9" mode="normal"

 UBDSV1 SAVING     FLOW-JA-FACE ON UNIT   1150 AT TIME STEP      9, STRESS PERIOD      1
 UBDSV06 SAVING       DATA-SPDIS IN MODEL GWF              PACKAGE NPF             CONNECTED TO MODEL GWF              PACKAGE NPF              ON UNIT   1150 AT TIME STEP      9, STRESS PERIOD      1
 UBDSV06 SAVING         DATA-SAT IN MODEL GWF              PACKAGE NPF             CONNECTED TO MODEL GWF              PACKAGE NPF              ON UNIT   1150 AT TIME STEP      9, STRESS PERIOD      1
 UBDSV06 SAVING              WEL IN MODEL GWF              PACKAGE GWF             CONNECTED TO MODEL GWF              PACKAGE WEL              ON UNIT   1150 AT TIME STEP      9, STRESS PERIOD      1
 UBDSV06 SAVING              CHD IN MODEL GWF              PACKAGE GWF             CONNECTED TO MODEL GWF              PACKAGE CHD              ON UNIT   1150 AT TIME STEP      9, STRESS PERIOD      1

 HEAD WILL BE SAVED ON UNIT 1151 AT END OF TIME STEP    9, STRESS PERIOD    1

end timestep


start timestep kper="1" kstp="10" mode="normal"

 UBDSV1 SAVING     FLOW-JA-FACE ON UNIT   1150 AT TIME STEP     10, STRESS PERIOD      1
 UBDSV06 SAVING       DATA-SPDIS IN MODEL GWF              PACKAGE NPF             CONNECTED TO MODEL GWF              PACKAGE NPF              ON UNIT   1150 AT TIME STEP     10, STRESS PERIOD      1
 UBDSV06 SAVING         DATA-SAT IN MODEL GWF              PACKAGE NPF             CONNECTED TO MODEL GWF              PACKAGE NPF              ON UNIT   1150 AT TIME STEP     10, STRESS PERIOD      1
 UBDSV06 SAVING              WEL IN MODEL GWF              PACKAGE GWF             CONNECTED TO MODEL GWF              PACKAGE WEL              ON UNIT   1150 AT TIME STEP     10, STRESS PERIOD      1
 UBDSV06 SAVING              CHD IN MODEL GWF              PACKAGE GWF             CONNECTED TO MODEL GWF              PACKAGE CHD              ON UNIT   1150 AT TIME STEP     10, STRESS PERIOD      1

 HEAD WILL BE SAVED ON UNIT 1151 AT END OF TIME STEP   10, STRESS PERIOD    1

end timestep


start timestep kper="1" kstp="11" mode="normal"

 UBDSV1 SAVING     FLOW-JA-FACE ON UNIT   1150 AT TIME STEP     11, STRESS PERIOD      1
 UBDSV06 SAVING       DATA-SPDIS IN MODEL GWF              PACKAGE NPF             CONNECTED TO MODEL GWF              PACKAGE NPF              ON UNIT   1150 AT TIME STEP     11, STRESS PERIOD      1
 UBDSV06 SAVING         DATA-SAT IN MODEL GWF              PACKAGE NPF             CONNECTED TO MODEL GWF              PACKAGE NPF              ON UNIT   1150 AT TIME STEP     11, STRESS PERIOD      1
 UBDSV06 SAVING              WEL IN MODEL GWF              PACKAGE GWF             CONNECTED TO MODEL GWF              PACKAGE WEL              ON UNIT   1150 AT TIME STEP     11, STRESS PERIOD      1
 UBDSV06 SAVING              CHD IN MODEL GWF              PACKAGE GWF             CONNECTED TO MODEL GWF              PACKAGE CHD              ON UNIT   1150 AT TIME STEP     11, STRESS PERIOD      1

 HEAD WILL BE SAVED ON UNIT 1151 AT END OF TIME STEP   11, STRESS PERIOD    1

end timestep


start timestep kper="1" kstp="12" mode="normal"

 UBDSV1 SAVING     FLOW-JA-FACE ON UNIT   1150 AT TIME STEP     12, STRESS PERIOD      1
 UBDSV06 SAVING       DATA-SPDIS IN MODEL GWF              PACKAGE NPF             CONNECTED TO MODEL GWF              PACKAGE NPF              ON UNIT   1150 AT TIME STEP     12, STRESS PERIOD      1
 UBDSV06 SAVING         DATA-SAT IN MODEL GWF              PACKAGE NPF             CONNECTED TO MODEL GWF              PACKAGE NPF              ON UNIT   1150 AT TIME STEP     12, STRESS PERIOD      1
 UBDSV06 SAVING              WEL IN MODEL GWF              PACKAGE GWF             CONNECTED TO MODEL GWF              PACKAGE WEL              ON UNIT   1150 AT TIME STEP     12, STRESS PERIOD      1
 UBDSV06 SAVING              CHD IN MODEL GWF              PACKAGE GWF             CONNECTED TO MODEL GWF              PACKAGE CHD              ON UNIT   1150 AT TIME STEP     12, STRESS PERIOD      1

 HEAD WILL BE SAVED ON UNIT 1151 AT END OF TIME STEP   12, STRESS PERIOD    1

end timestep


start timestep kper="1" kstp="13" mode="normal"

 UBDSV1 SAVING     FLOW-JA-FACE ON UNIT   1150 AT TIME STEP     13, STRESS PERIOD      1
 UBDSV06 SAVING       DATA-SPDIS IN MODEL GWF              PACKAGE NPF             CONNECTED TO MODEL GWF              PACKAGE NPF              ON UNIT   1150 AT TIME STEP     13, STRESS PERIOD      1
 UBDSV06 SAVING         DATA-SAT IN MODEL GWF              PACKAGE NPF             CONNECTED TO MODEL GWF              PACKAGE NPF              ON UNIT   1150 AT TIME STEP     13, STRESS PERIOD      1
 UBDSV06 SAVING              WEL IN MODEL GWF              PACKAGE GWF             CONNECTED TO MODEL GWF              PACKAGE WEL              ON UNIT   1150 AT TIME STEP     13, STRESS PERIOD      1
 UBDSV06 SAVING              CHD IN MODEL GWF              PACKAGE GWF             CONNECTED TO MODEL GWF              PACKAGE CHD              ON UNIT   1150 AT TIME STEP     13, STRESS PERIOD      1

 HEAD WILL BE SAVED ON UNIT 1151 AT END OF TIME STEP   13, STRESS PERIOD    1

end timestep


start timestep kper="1" kstp="14" mode="normal"

 UBDSV1 SAVING     FLOW-JA-FACE ON UNIT   1150 AT TIME STEP     14, STRESS PERIOD      1
 UBDSV06 SAVING       DATA-SPDIS IN MODEL GWF              PACKAGE NPF             CONNECTED TO MODEL GWF              PACKAGE NPF              ON UNIT   1150 AT TIME STEP     14, STRESS PERIOD      1
 UBDSV06 SAVING         DATA-SAT IN MODEL GWF              PACKAGE NPF             CONNECTED TO MODEL GWF              PACKAGE NPF              ON UNIT   1150 AT TIME STEP     14, STRESS PERIOD      1
 UBDSV06 SAVING              WEL IN MODEL GWF              PACKAGE GWF             CONNECTED TO MODEL GWF              PACKAGE WEL              ON UNIT   1150 AT TIME STEP     14, STRESS PERIOD      1
 UBDSV06 SAVING              CHD IN MODEL GWF              PACKAGE GWF             CONNECTED TO MODEL GWF              PACKAGE CHD              ON UNIT   1150 AT TIME STEP     14, STRESS PERIOD      1

 HEAD WILL BE SAVED ON UNIT 1151 AT END OF TIME STEP   14, STRESS PERIOD    1

end timestep


start timestep kper="1" kstp="15" mode="normal"

 UBDSV1 SAVING     FLOW-JA-FACE ON UNIT   1150 AT TIME STEP     15, STRESS PERIOD      1
 UBDSV06 SAVING       DATA-SPDIS IN MODEL GWF              PACKAGE NPF             CONNECTED TO MODEL GWF              PACKAGE NPF              ON UNIT   1150 AT TIME STEP     15, STRESS PERIOD      1
 UBDSV06 SAVING         DATA-SAT IN MODEL GWF              PACKAGE NPF             CONNECTED TO MODEL GWF              PACKAGE NPF              ON UNIT   1150 AT TIME STEP     15, STRESS PERIOD      1
 UBDSV06 SAVING              WEL IN MODEL GWF              PACKAGE GWF             CONNECTED TO MODEL GWF              PACKAGE WEL              ON UNIT   1150 AT TIME STEP     15, STRESS PERIOD      1
 UBDSV06 SAVING              CHD IN MODEL GWF              PACKAGE GWF             CONNECTED TO MODEL GWF              PACKAGE CHD              ON UNIT   1150 AT TIME STEP     15, STRESS PERIOD      1

 HEAD WILL BE SAVED ON UNIT 1151 AT END OF TIME STEP   15, STRESS PERIOD    1

end timestep


start timestep kper="1" kstp="16" mode="normal"

 UBDSV1 SAVING     FLOW-JA-FACE ON UNIT   1150 AT TIME STEP     16, STRESS PERIOD      1
 UBDSV06 SAVING       DATA-SPDIS IN MODEL GWF              PACKAGE NPF             CONNECTED TO MODEL GWF              PACKAGE NPF              ON UNIT   1150 AT TIME STEP     16, STRESS PERIOD      1
 UBDSV06 SAVING         DATA-SAT IN MODEL GWF              PACKAGE NPF             CONNECTED TO MODEL GWF              PACKAGE NPF              ON UNIT   1150 AT TIME STEP     16, STRESS PERIOD      1
 UBDSV06 SAVING              WEL IN MODEL GWF              PACKAGE GWF             CONNECTED TO MODEL GWF              PACKAGE WEL              ON UNIT   1150 AT TIME STEP     16, STRESS PERIOD      1
 UBDSV06 SAVING              CHD IN MODEL GWF              PACKAGE GWF             CONNECTED TO MODEL GWF              PACKAGE CHD              ON UNIT   1150 AT TIME STEP     16, STRESS PERIOD      1

 HEAD WILL BE SAVED ON UNIT 1151 AT END OF TIME STEP   16, STRESS PERIOD    1

end timestep


start timestep kper="1" kstp="17" mode="normal"

 UBDSV1 SAVING     FLOW-JA-FACE ON UNIT   1150 AT TIME STEP     17, STRESS PERIOD      1
 UBDSV06 SAVING       DATA-SPDIS IN MODEL GWF              PACKAGE NPF             CONNECTED TO MODEL GWF              PACKAGE NPF              ON UNIT   1150 AT TIME STEP     17, STRESS PERIOD      1
 UBDSV06 SAVING         DATA-SAT IN MODEL GWF              PACKAGE NPF             CONNECTED TO MODEL GWF              PACKAGE NPF              ON UNIT   1150 AT TIME STEP     17, STRESS PERIOD      1
 UBDSV06 SAVING              WEL IN MODEL GWF              PACKAGE GWF             CONNECTED TO MODEL GWF              PACKAGE WEL              ON UNIT   1150 AT TIME STEP     17, STRESS PERIOD      1
 UBDSV06 SAVING              CHD IN MODEL GWF              PACKAGE GWF             CONNECTED TO MODEL GWF              PACKAGE CHD              ON UNIT   1150 AT TIME STEP     17, STRESS PERIOD      1

 HEAD WILL BE SAVED ON UNIT 1151 AT END OF TIME STEP   17, STRESS PERIOD    1

end timestep


start timestep kper="1" kstp="18" mode="normal"

 UBDSV1 SAVING     FLOW-JA-FACE ON UNIT   1150 AT TIME STEP     18, STRESS PERIOD      1
 UBDSV06 SAVING       DATA-SPDIS IN MODEL GWF              PACKAGE NPF             CONNECTED TO MODEL GWF              PACKAGE NPF              ON UNIT   1150 AT TIME STEP     18, STRESS PERIOD      1
 UBDSV06 SAVING         DATA-SAT IN MODEL GWF              PACKAGE NPF             CONNECTED TO MODEL GWF              PACKAGE NPF              ON UNIT   1150 AT TIME STEP     18, STRESS PERIOD      1
 UBDSV06 SAVING              WEL IN MODEL GWF              PACKAGE GWF             CONNECTED TO MODEL GWF              PACKAGE WEL              ON UNIT   1150 AT TIME STEP     18, STRESS PERIOD      1
 UBDSV06 SAVING              CHD IN MODEL GWF              PACKAGE GWF             CONNECTED TO MODEL GWF              PACKAGE CHD              ON UNIT   1150 AT TIME STEP     18, STRESS PERIOD      1

 HEAD WILL BE SAVED ON UNIT 1151 AT END OF TIME STEP   18, STRESS PERIOD    1

end timestep


start timestep kper="1" kstp="19" mode="normal"

 UBDSV1 SAVING     FLOW-JA-FACE ON UNIT   1150 AT TIME STEP     19, STRESS PERIOD      1
 UBDSV06 SAVING       DATA-SPDIS IN MODEL GWF              PACKAGE NPF             CONNECTED TO MODEL GWF              PACKAGE NPF              ON UNIT   1150 AT TIME STEP     19, STRESS PERIOD      1
 UBDSV06 SAVING         DATA-SAT IN MODEL GWF              PACKAGE NPF             CONNECTED TO MODEL GWF              PACKAGE NPF              ON UNIT   1150 AT TIME STEP     19, STRESS PERIOD      1
 UBDSV06 SAVING              WEL IN MODEL GWF              PACKAGE GWF             CONNECTED TO MODEL GWF              PACKAGE WEL              ON UNIT   1150 AT TIME STEP     19, STRESS PERIOD      1
 UBDSV06 SAVING              CHD IN MODEL GWF              PACKAGE GWF             CONNECTED TO MODEL GWF              PACKAGE CHD              ON UNIT   1150 AT TIME STEP     19, STRESS PERIOD      1

 HEAD WILL BE SAVED ON UNIT 1151 AT END OF TIME STEP   19, STRESS PERIOD    1

end timestep


start timestep kper="1" kstp="20" mode="normal"

 UBDSV1 SAVING     FLOW-JA-FACE ON UNIT   1150 AT TIME STEP     20, STRESS PERIOD      1
 UBDSV06 SAVING       DATA-SPDIS IN MODEL GWF              PACKAGE NPF             CONNECTED TO MODEL GWF              PACKAGE NPF              ON UNIT   1150 AT TIME STEP     20, STRESS PERIOD      1
 UBDSV06 SAVING         DATA-SAT IN MODEL GWF              PACKAGE NPF             CONNECTED TO MODEL GWF              PACKAGE NPF              ON UNIT   1150 AT TIME STEP     20, STRESS PERIOD      1
 UBDSV06 SAVING              WEL IN MODEL GWF              PACKAGE GWF             CONNECTED TO MODEL GWF              PACKAGE WEL              ON UNIT   1150 AT TIME STEP     20, STRESS PERIOD      1
 UBDSV06 SAVING              CHD IN MODEL GWF              PACKAGE GWF             CONNECTED TO MODEL GWF              PACKAGE CHD              ON UNIT   1150 AT TIME STEP     20, STRESS PERIOD      1

 HEAD WILL BE SAVED ON UNIT 1151 AT END OF TIME STEP   20, STRESS PERIOD    1

end timestep


start timestep kper="1" kstp="21" mode="normal"

 UBDSV1 SAVING     FLOW-JA-FACE ON UNIT   1150 AT TIME STEP     21, STRESS PERIOD      1
 UBDSV06 SAVING       DATA-SPDIS IN MODEL GWF              PACKAGE NPF             CONNECTED TO MODEL GWF              PACKAGE NPF              ON UNIT   1150 AT TIME STEP     21, STRESS PERIOD      1
 UBDSV06 SAVING         DATA-SAT IN MODEL GWF              PACKAGE NPF             CONNECTED TO MODEL GWF              PACKAGE NPF              ON UNIT   1150 AT TIME STEP     21, STRESS PERIOD      1
 UBDSV06 SAVING              WEL IN MODEL GWF              PACKAGE GWF             CONNECTED TO MODEL GWF              PACKAGE WEL              ON UNIT   1150 AT TIME STEP     21, STRESS PERIOD      1
 UBDSV06 SAVING              CHD IN MODEL GWF              PACKAGE GWF             CONNECTED TO MODEL GWF              PACKAGE CHD              ON UNIT   1150 AT TIME STEP     21, STRESS PERIOD      1

 HEAD WILL BE SAVED ON UNIT 1151 AT END OF TIME STEP   21, STRESS PERIOD    1

end timestep


start timestep kper="1" kstp="22" mode="normal"

 UBDSV1 SAVING     FLOW-JA-FACE ON UNIT   1150 AT TIME STEP     22, STRESS PERIOD      1
 UBDSV06 SAVING       DATA-SPDIS IN MODEL GWF              PACKAGE NPF             CONNECTED TO MODEL GWF              PACKAGE NPF              ON UNIT   1150 AT TIME STEP     22, STRESS PERIOD      1
 UBDSV06 SAVING         DATA-SAT IN MODEL GWF              PACKAGE NPF             CONNECTED TO MODEL GWF              PACKAGE NPF              ON UNIT   1150 AT TIME STEP     22, STRESS PERIOD      1
 UBDSV06 SAVING              WEL IN MODEL GWF              PACKAGE GWF             CONNECTED TO MODEL GWF              PACKAGE WEL              ON UNIT   1150 AT TIME STEP     22, STRESS PERIOD      1
 UBDSV06 SAVING              CHD IN MODEL GWF              PACKAGE GWF             CONNECTED TO MODEL GWF              PACKAGE CHD              ON UNIT   1150 AT TIME STEP     22, STRESS PERIOD      1

 HEAD WILL BE SAVED ON UNIT 1151 AT END OF TIME STEP   22, STRESS PERIOD    1

end timestep


start timestep kper="1" kstp="23" mode="normal"

 UBDSV1 SAVING     FLOW-JA-FACE ON UNIT   1150 AT TIME STEP     23, STRESS PERIOD      1
 UBDSV06 SAVING       DATA-SPDIS IN MODEL GWF              PACKAGE NPF             CONNECTED TO MODEL GWF              PACKAGE NPF              ON UNIT   1150 AT TIME STEP     23, STRESS PERIOD      1
 UBDSV06 SAVING         DATA-SAT IN MODEL GWF              PACKAGE NPF             CONNECTED TO MODEL GWF              PACKAGE NPF              ON UNIT   1150 AT TIME STEP     23, STRESS PERIOD      1
 UBDSV06 SAVING              WEL IN MODEL GWF              PACKAGE GWF             CONNECTED TO MODEL GWF              PACKAGE WEL              ON UNIT   1150 AT TIME STEP     23, STRESS PERIOD      1
 UBDSV06 SAVING              CHD IN MODEL GWF              PACKAGE GWF             CONNECTED TO MODEL GWF              PACKAGE CHD              ON UNIT   1150 AT TIME STEP     23, STRESS PERIOD      1

 HEAD WILL BE SAVED ON UNIT 1151 AT END OF TIME STEP   23, STRESS PERIOD    1

end timestep


start timestep kper="1" kstp="24" mode="normal"

 UBDSV1 SAVING     FLOW-JA-FACE ON UNIT   1150 AT TIME STEP     24, STRESS PERIOD      1
 UBDSV06 SAVING       DATA-SPDIS IN MODEL GWF              PACKAGE NPF             CONNECTED TO MODEL GWF              PACKAGE NPF              ON UNIT   1150 AT TIME STEP     24, STRESS PERIOD      1
 UBDSV06 SAVING         DATA-SAT IN MODEL GWF              PACKAGE NPF             CONNECTED TO MODEL GWF              PACKAGE NPF              ON UNIT   1150 AT TIME STEP     24, STRESS PERIOD      1
 UBDSV06 SAVING              WEL IN MODEL GWF              PACKAGE GWF             CONNECTED TO MODEL GWF              PACKAGE WEL              ON UNIT   1150 AT TIME STEP     24, STRESS PERIOD      1
 UBDSV06 SAVING              CHD IN MODEL GWF              PACKAGE GWF             CONNECTED TO MODEL GWF              PACKAGE CHD              ON UNIT   1150 AT TIME STEP     24, STRESS PERIOD      1
1
  HEAD IN LAYER   1 AT END OF TIME STEP  24 IN STRESS PERIOD    1
  ---------------------------------------------------------------------------

                1               2               3               4               5               6               7               8               9              10
               11              12              13              14              15              16              17              18              19              20
               21              22              23              24              25              26              27              28              29              30
               31              32              33              34              35              36              37              38              39              40
               41              42              43              44              45              46              47              48              49              50
 ................................................................................................................................................................
   1      1.12691         1.12432         1.12173         1.11914         1.11655         1.11396         1.11137         1.10878         1.10619         1.10360    
          1.10101         1.09842         1.09583         1.09324         1.09065         1.08806         1.08547         1.08288         1.08029         1.07770    
          1.07511         1.07252         1.06993         1.06734         1.06475         1.06216         1.05957         1.05698         1.05439         1.05180    
          1.04921         1.04662         1.04403         1.04144         1.03885         1.03626         1.03367         1.03108         1.02849         1.02590    
          1.02331         1.02072         1.01813         1.01554         1.01295         1.01036         1.00777         1.00518         1.00259         1.00000    

 HEAD WILL BE SAVED ON UNIT 1151 AT END OF TIME STEP   24, STRESS PERIOD    1


  VOLUME BUDGET FOR ENTIRE MODEL AT END OF TIME STEP   24, STRESS PERIOD   1
  ---------------------------------------------------------------------------------------------------

     CUMULATIVE VOLUME      L**3       RATES FOR THIS TIME STEP      L**3/T          PACKAGE NAME    
     ------------------                 ------------------------                     ----------------

           IN:                                      IN:
           ---                                      ---
                 WEL =       6.2160E-02                   WEL =           0.2590     WEL                              
                 CHD =           0.0000                   CHD =           0.0000     CHD                              

            TOTAL IN =       6.2160E-02              TOTAL IN =           0.2590

          OUT:                                     OUT:
          ----                                     ----
                 WEL =           0.0000                   WEL =           0.0000     WEL                              
                 CHD =       6.2160E-02                   CHD =           0.2590     CHD                              

           TOTAL OUT =       6.2160E-02             TOTAL OUT =           0.2590

            IN - OUT =       3.1503E-15              IN - OUT =       1.2990E-14

 PERCENT DISCREPANCY =           0.00     PERCENT DISCREPANCY =           0.00




         TIME SUMMARY AT END OF TIME STEP   24 IN STRESS PERIOD    1
                    SECONDS     MINUTES      HOURS       DAYS        YEARS
                    -----------------------------------------------------------
   TIME STEP LENGTH  864.00      14.400     0.24000     1.00000E-02 2.73785E-05
 STRESS PERIOD TIME  20736.      345.60      5.7600     0.24000     6.57084E-04
         TOTAL TIME  20736.      345.60      5.7600     0.24000     6.57084E-04


end timestep

