   Input file: phinp.dat
  Output file: phout.dat
Database file: pht3d_datab.dat

------------------
Reading data base.
------------------

	SOLUTION_MASTER_SPECIES
	SOLUTION_SPECIES
	PHASES
	END
------------------------------------
Reading input data for simulation 1.
------------------------------------

	SOLUTION 1 # [K,I,J] = 1,1,1
		units mol/kgw
		water 1.0
		temp 2.500000e+001
		pH 6.955000e+000  # comp 13
		pe 1.670000e+000  # comp 14
		Al 1.270000e-007  # comp 1
		C(4) 3.940000e-003  # comp 2
		Ca 6.920000e-003  # comp 3
		Cl 1.030000e-003  # comp 4
		Fe(2) 5.390000e-005  # comp 5
		Fe(3) 2.320000e-008  # comp 6
		K 6.650000e-005  # comp 7
		Mg 1.960000e-003  # comp 8
		Mn(2) 4.730000e-005  # comp 9
		Na 1.300000e-003  # comp 10
		S(6) 7.480000e-003  # comp 11
		Si 1.940000e-003  # comp 12
	END
-------------------------------------------
Beginning of initial solution calculations.
-------------------------------------------

Initial solution 1.	

-----------------------------Solution composition------------------------------

	Elements           Molality       Moles

	Al               1.270e-007  1.270e-007
	C(4)             3.940e-003  3.940e-003
	Ca               6.920e-003  6.920e-003
	Cl               1.030e-003  1.030e-003
	Fe(2)            5.390e-005  5.390e-005
	Fe(3)            2.320e-008  2.320e-008
	K                6.650e-005  6.650e-005
	Mg               1.960e-003  1.960e-003
	Mn(2)            4.730e-005  4.730e-005
	Na               1.300e-003  1.300e-003
	S(6)             7.480e-003  7.480e-003
	Si               1.940e-003  1.940e-003

----------------------------Description of solution----------------------------

                                       pH  =   6.955    
                                       pe  =   1.670    
                        Activity of water  =   1.000
                           Ionic strength  =  2.694e-002
                       Mass of water (kg)  =  1.000e+000
                 Total alkalinity (eq/kg)  =  3.287e-003
                       Total CO2 (mol/kg)  =  3.940e-003
                      Temperature (deg C)  =  25.000
                  Electrical balance (eq)  =  5.219e-005
 Percent error, 100*(Cat-|An|)/(Cat+|An|)  =   0.18
                               Iterations  =   8
                                  Total H  = 1.110235e+002
                                  Total O  = 5.555505e+001

---------------------------------Redox couples---------------------------------

	Redox couple             pe  Eh (volts)

	Fe(2)/Fe(3)          1.6718      0.0989

----------------------------Distribution of species----------------------------

                                                   Log       Log         Log 
   Species                 Molality    Activity  Molality  Activity     Gamma

   H+                    1.263e-007  1.109e-007    -6.899    -6.955    -0.056
   OH-                   1.061e-007  9.022e-008    -6.974    -7.045    -0.070
   H2O                   5.551e+001  9.996e-001     1.744    -0.000     0.000
Al              1.270e-007
   Al(OH)4-              1.159e-007  9.920e-008    -6.936    -7.003    -0.068
   Al(OH)3               5.804e-009  5.840e-009    -8.236    -8.234     0.003
   Al(OH)2+              5.140e-009  4.398e-009    -8.289    -8.357    -0.068
   AlOH+2                1.162e-010  6.227e-011    -9.935   -10.206    -0.271
   AlSO4+                2.473e-012  2.116e-012   -11.607   -11.674    -0.068
   Al+3                  2.234e-012  6.955e-013   -11.651   -12.158    -0.507
   Al(SO4)2-             5.709e-013  4.885e-013   -12.243   -12.311    -0.068
C(4)            3.940e-003
   HCO3-                 3.118e-003  2.686e-003    -2.506    -2.571    -0.065
   CO2                   6.659e-004  6.701e-004    -3.177    -3.174     0.003
   CaHCO3+               1.126e-004  9.698e-005    -3.949    -4.013    -0.065
   MgHCO3+               3.076e-005  2.632e-005    -4.512    -4.580    -0.068
   CaCO3                 5.365e-006  5.399e-006    -5.270    -5.268     0.003
   CO3-2                 2.062e-006  1.136e-006    -5.686    -5.945    -0.259
   MnCO3                 1.719e-006  1.729e-006    -5.765    -5.762     0.003
   NaHCO3                1.652e-006  1.662e-006    -5.782    -5.779     0.003
   MnHCO3+               1.123e-006  9.613e-007    -5.949    -6.017    -0.068
   MgCO3                 9.020e-007  9.076e-007    -6.045    -6.042     0.003
   NaCO3-                2.699e-008  2.310e-008    -7.569    -7.636    -0.068
Ca              6.920e-003
   Ca+2                  5.137e-003  2.830e-003    -2.289    -2.548    -0.259
   CaSO4                 1.665e-003  1.675e-003    -2.779    -2.776     0.003
   CaHCO3+               1.126e-004  9.698e-005    -3.949    -4.013    -0.065
   CaCO3                 5.365e-006  5.399e-006    -5.270    -5.268     0.003
   CaOH+                 4.946e-009  4.232e-009    -8.306    -8.373    -0.068
Cl              1.030e-003
   Cl-                   1.030e-003  8.767e-004    -2.987    -3.057    -0.070
   MnCl+                 7.946e-008  6.799e-008    -7.100    -7.168    -0.068
Fe(2)           5.390e-005
   Fe+2                  4.182e-005  2.337e-005    -4.379    -4.631    -0.253
   FeSO4                 1.200e-005  1.208e-005    -4.921    -4.918     0.003
   FeOH+                 7.784e-008  6.661e-008    -7.109    -7.176    -0.068
Fe(3)           2.320e-008
   Fe(OH)2+              2.127e-008  1.820e-008    -7.672    -7.740    -0.068
   Fe(OH)3               1.915e-009  1.927e-009    -8.718    -8.715     0.003
   FeOH+2                1.138e-011  6.100e-012   -10.944   -11.215    -0.271
   FeSO4+                2.961e-015  2.534e-015   -14.529   -14.596    -0.068
   Fe+3                  3.366e-016  1.048e-016   -15.473   -15.980    -0.507
   Fe(SO4)2-             2.721e-016  2.328e-016   -15.565   -15.633    -0.068
H(0)            7.913e-021
   H2                    3.956e-021  3.981e-021   -20.403   -20.400     0.003
K               6.650e-005
   K+                    6.518e-005  5.548e-005    -4.186    -4.256    -0.070
   KSO4-                 1.324e-006  1.133e-006    -5.878    -5.946    -0.068
   KOH                   1.723e-012  1.734e-012   -11.764   -11.761     0.003
Mg              1.960e-003
   Mg+2                  1.498e-003  8.375e-004    -2.824    -3.077    -0.253
   MgSO4                 4.301e-004  4.328e-004    -3.366    -3.364     0.003
   MgHCO3+               3.076e-005  2.632e-005    -4.512    -4.580    -0.068
   MgCO3                 9.020e-007  9.076e-007    -6.045    -6.042     0.003
   MgOH+                 3.203e-008  2.741e-008    -7.494    -7.562    -0.068
Mn(2)           4.730e-005
   Mn+2                  3.430e-005  1.917e-005    -4.465    -4.717    -0.253
   MnSO4                 1.007e-005  1.014e-005    -4.997    -4.994     0.003
   MnCO3                 1.719e-006  1.729e-006    -5.765    -5.762     0.003
   MnHCO3+               1.123e-006  9.613e-007    -5.949    -6.017    -0.068
   MnCl+                 7.946e-008  6.799e-008    -7.100    -7.168    -0.068
   MnOH+                 5.190e-009  4.441e-009    -8.285    -8.353    -0.068
Na              1.300e-003
   Na+                   1.280e-003  1.097e-003    -2.893    -2.960    -0.067
   NaSO4-                1.868e-005  1.598e-005    -4.729    -4.796    -0.068
   NaHCO3                1.652e-006  1.662e-006    -5.782    -5.779     0.003
   NaCO3-                2.699e-008  2.310e-008    -7.569    -7.636    -0.068
   NaOH                  6.493e-011  6.534e-011   -10.188   -10.185     0.003
O(0)            0.000e+000
   O2                    0.000e+000  0.000e+000   -51.583   -51.580     0.003
S(6)            7.480e-003
   SO4-2                 5.343e-003  2.906e-003    -2.272    -2.537    -0.264
   CaSO4                 1.665e-003  1.675e-003    -2.779    -2.776     0.003
   MgSO4                 4.301e-004  4.328e-004    -3.366    -3.364     0.003
   NaSO4-                1.868e-005  1.598e-005    -4.729    -4.796    -0.068
   FeSO4                 1.200e-005  1.208e-005    -4.921    -4.918     0.003
   MnSO4                 1.007e-005  1.014e-005    -4.997    -4.994     0.003
   KSO4-                 1.324e-006  1.133e-006    -5.878    -5.946    -0.068
   HSO4-                 3.662e-008  3.134e-008    -7.436    -7.504    -0.068
   AlSO4+                2.473e-012  2.116e-012   -11.607   -11.674    -0.068
   Al(SO4)2-             5.709e-013  4.885e-013   -12.243   -12.311    -0.068
   FeSO4+                2.961e-015  2.534e-015   -14.529   -14.596    -0.068
   Fe(SO4)2-             2.721e-016  2.328e-016   -15.565   -15.633    -0.068
Si              1.940e-003
   H4SiO4                1.938e-003  1.950e-003    -2.713    -2.710     0.003
   H3SiO4-               2.425e-006  2.070e-006    -5.615    -5.684    -0.069

------------------------------Saturation indices-------------------------------

	Phase               SI log IAP  log KT

	Calcite          -0.01   -8.49   -8.48  CaCO3
	Fe(OH)3(a)       -0.01    4.88    4.89  Fe(OH)3
	Gibbsite         -0.06    8.71    8.77  Al(OH)3
	Gypsum           -0.50   -5.09   -4.58  CaSO4:2H2O
	Siderite         -0.01  -10.58  -10.57  FeCO3
	SiO2(a)           0.00   -2.71   -2.71  SiO2

------------------
End of simulation.
------------------

------------------------------------
Reading input data for simulation 2.
------------------------------------

	EQUILIBRIUM_PHASES 1
		Calcite 0.000000e+000 5.571429e-002 # comp 15
		Fe(OH)3(a) 0.000000e+000 5.314286e-003 # comp 16
		Gibbsite 0.000000e+000 7.171429e-003 # comp 17
		Gypsum 0.000000e+000 0.000000e+000 # comp 18
		SiO2(a) 0.000000e+000 1.162857e+000 # comp 19
		Siderite 0.000000e+000 1.205714e-002 # comp 20
	END
------------------
End of simulation.
------------------

------------------------------------
Reading input data for simulation 3.
------------------------------------

	COPY solution 1 2-250
	COPY equilibrium_phases 1 2-250
	END
------------------
End of simulation.
------------------

------------------------------------
Reading input data for simulation 4.
------------------------------------

	PRINT
		reset false
-------------------------------------------
Beginning of initial solution calculations.
-------------------------------------------

Initial solution 0.	CONSTANT HEAD in layer 1, row 3, column 1

-----------------------------Solution composition------------------------------

	Elements           Molality       Moles

	Al               2.080e-003  2.080e-003
	C(4)             4.920e-004  4.920e-004
	Ca               1.080e-002  1.080e-002
	Cl               1.190e-004  1.190e-004
	Fe(2)            3.060e-002  3.060e-002
	Fe(3)            1.990e-007  1.990e-007
	K                7.930e-004  7.930e-004
	Mg               9.690e-004  9.690e-004
	Mn(2)            9.830e-006  9.830e-006
	Na               1.390e-003  1.390e-003
	S(6)             5.000e-002  5.000e-002
	Si               2.080e-003  2.080e-003

----------------------------Description of solution----------------------------

                                       pH  =   3.990    
                                       pe  =   7.690    
                        Activity of water  =   0.999
                           Ionic strength  =  1.115e-001
                       Mass of water (kg)  =  1.000e+000
                 Total alkalinity (eq/kg)  = -2.390e-004
                       Total CO2 (mol/kg)  =  4.920e-004
                      Temperature (deg C)  =  25.000
                  Electrical balance (eq)  = -6.699e-003
 Percent error, 100*(Cat-|An|)/(Cat+|An|)  =  -5.93
                               Iterations  =  10
                                  Total H  = 1.110210e+002
                                  Total O  = 5.571554e+001

----------------------------Distribution of species----------------------------

                                                   Log       Log         Log 
   Species                 Molality    Activity  Molality  Activity     Gamma

   H+                    1.246e-004  1.023e-004    -3.904    -3.990    -0.086
   OH-                   1.297e-010  9.770e-011    -9.887   -10.010    -0.123
   H2O                   5.551e+001  9.987e-001     1.744    -0.001     0.000
Al              2.080e-003
   AlSO4+                9.155e-004  7.099e-004    -3.038    -3.149    -0.110
   Al(SO4)2-             7.685e-004  5.959e-004    -3.114    -3.225    -0.110
   Al+3                  3.782e-004  6.416e-005    -3.422    -4.193    -0.770
   AlOH+2                1.720e-005  6.220e-006    -4.764    -5.206    -0.442
   Al(OH)2+              6.135e-007  4.757e-007    -6.212    -6.323    -0.110
   Al(OH)3               6.667e-010  6.841e-010    -9.176    -9.165     0.011
   Al(OH)4-              1.623e-011  1.258e-011   -10.790   -10.900    -0.110
C(4)            4.920e-004
   CO2                   4.891e-004  5.018e-004    -3.311    -3.299     0.011
   HCO3-                 2.786e-006  2.178e-006    -5.555    -5.662    -0.107
   CaHCO3+               8.108e-008  6.340e-008    -7.091    -7.198    -0.107
   MgHCO3+               7.313e-009  5.671e-009    -8.136    -8.246    -0.110
   NaHCO3                1.227e-009  1.259e-009    -8.911    -8.900     0.011
   MnHCO3+               1.159e-010  8.990e-011    -9.936   -10.046    -0.110
   CaCO3                 3.729e-012  3.826e-012   -11.428   -11.417     0.011
   CO3-2                 2.670e-012  9.983e-013   -11.573   -12.001    -0.427
   MgCO3                 2.066e-013  2.119e-013   -12.685   -12.674     0.011
   MnCO3                 1.708e-013  1.753e-013   -12.767   -12.756     0.011
   NaCO3-                2.446e-014  1.897e-014   -13.612   -13.722    -0.110
Ca              1.080e-002
   Ca+2                  6.014e-003  2.281e-003    -2.221    -2.642    -0.421
   CaSO4                 4.786e-003  4.910e-003    -2.320    -2.309     0.011
   CaHCO3+               8.108e-008  6.340e-008    -7.091    -7.198    -0.107
   CaOH+                 4.765e-012  3.695e-012   -11.322   -11.432    -0.110
   CaCO3                 3.729e-012  3.826e-012   -11.428   -11.417     0.011
Cl              1.190e-004
   Cl-                   1.190e-004  9.001e-005    -3.924    -4.046    -0.121
   MnCl+                 1.038e-009  8.050e-010    -8.984    -9.094    -0.110
Fe(2)           3.060e-002
   Fe+2                  1.787e-002  6.948e-003    -1.748    -2.158    -0.410
   FeSO4                 1.273e-002  1.306e-002    -1.895    -1.884     0.011
   FeOH+                 2.765e-008  2.144e-008    -7.558    -7.669    -0.110
Fe(3)           1.990e-007
   Fe(OH)2+              8.797e-008  6.822e-008    -7.056    -7.166    -0.110
   FeOH+2                5.838e-008  2.111e-008    -7.234    -7.676    -0.442
   FeSO4+                3.797e-008  2.945e-008    -7.421    -7.531    -0.110
   Fe(SO4)2-             1.269e-008  9.840e-009    -7.897    -8.007    -0.110
   Fe+3                  1.975e-009  3.350e-010    -8.705    -9.475    -0.770
   Fe(OH)3               7.623e-012  7.822e-012   -11.118   -11.107     0.011
H(0)            6.024e-027
   H2                    3.012e-027  3.090e-027   -26.521   -26.510     0.011
K               7.930e-004
   K+                    7.394e-004  5.593e-004    -3.131    -3.252    -0.121
   KSO4-                 5.356e-005  4.153e-005    -4.271    -4.382    -0.110
   KOH                   1.845e-014  1.893e-014   -13.734   -13.723     0.011
Mg              9.690e-004
   Mg+2                  5.615e-004  2.225e-004    -3.251    -3.653    -0.402
   MgSO4                 4.075e-004  4.181e-004    -3.390    -3.379     0.011
   MgHCO3+               7.313e-009  5.671e-009    -8.136    -8.246    -0.110
   MgOH+                 1.017e-011  7.883e-012   -10.993   -11.103    -0.110
   MgCO3                 2.066e-013  2.119e-013   -12.685   -12.674     0.011
Mn(2)           9.830e-006
   Mn+2                  5.686e-006  2.210e-006    -5.245    -5.656    -0.410
   MnSO4                 4.143e-006  4.250e-006    -5.383    -5.372     0.011
   MnCl+                 1.038e-009  8.050e-010    -8.984    -9.094    -0.110
   MnHCO3+               1.159e-010  8.990e-011    -9.936   -10.046    -0.110
   MnOH+                 7.151e-013  5.545e-013   -12.146   -12.256    -0.110
   MnCO3                 1.708e-013  1.753e-013   -12.767   -12.756     0.011
Na              1.390e-003
   Na+                   1.320e-003  1.025e-003    -2.879    -2.989    -0.110
   NaSO4-                7.001e-005  5.428e-005    -4.155    -4.265    -0.110
   NaHCO3                1.227e-009  1.259e-009    -8.911    -8.900     0.011
   NaOH                  6.441e-014  6.609e-014   -13.191   -13.180     0.011
   NaCO3-                2.446e-014  1.897e-014   -13.612   -13.722    -0.110
O(0)            8.486e-040
   O2                    4.243e-040  4.353e-040   -39.372   -39.361     0.011
S(6)            5.000e-002
   SO4-2                 2.936e-002  1.057e-002    -1.532    -1.976    -0.444
   FeSO4                 1.273e-002  1.306e-002    -1.895    -1.884     0.011
   CaSO4                 4.786e-003  4.910e-003    -2.320    -2.309     0.011
   AlSO4+                9.155e-004  7.099e-004    -3.038    -3.149    -0.110
   Al(SO4)2-             7.685e-004  5.959e-004    -3.114    -3.225    -0.110
   MgSO4                 4.075e-004  4.181e-004    -3.390    -3.379     0.011
   HSO4-                 1.356e-004  1.051e-004    -3.868    -3.978    -0.110
   NaSO4-                7.001e-005  5.428e-005    -4.155    -4.265    -0.110
   KSO4-                 5.356e-005  4.153e-005    -4.271    -4.382    -0.110
   MnSO4                 4.143e-006  4.250e-006    -5.383    -5.372     0.011
   FeSO4+                3.797e-008  2.945e-008    -7.421    -7.531    -0.110
   Fe(SO4)2-             1.269e-008  9.840e-009    -7.897    -8.007    -0.110
Si              2.080e-003
   H4SiO4                2.080e-003  2.134e-003    -2.682    -2.671     0.011
   H3SiO4-               3.224e-009  2.456e-009    -8.492    -8.610    -0.118

------------------------------Saturation indices-------------------------------

	Phase               SI log IAP  log KT

	Calcite          -6.16  -14.64   -8.48  CaCO3
	Fe(OH)3(a)       -2.40    2.49    4.89  Fe(OH)3
	Gibbsite         -0.99    7.78    8.77  Al(OH)3
	Gypsum           -0.04   -4.62   -4.58  CaSO4:2H2O
	Siderite         -3.59  -14.16  -10.57  FeCO3
	SiO2(a)           0.04   -2.67   -2.71  SiO2

-------------------------------------------
Beginning of initial solution calculations.
-------------------------------------------

Initial solution 0.	CONSTANT HEAD in layer 1, row 2, column 1

-----------------------------Solution composition------------------------------

	Elements           Molality       Moles

	Al               2.080e-003  2.080e-003
	C(4)             4.920e-004  4.920e-004
	Ca               1.080e-002  1.080e-002
	Cl               1.190e-004  1.190e-004
	Fe(2)            3.060e-002  3.060e-002
	Fe(3)            1.990e-007  1.990e-007
	K                7.930e-004  7.930e-004
	Mg               9.690e-004  9.690e-004
	Mn(2)            9.830e-006  9.830e-006
	Na               1.390e-003  1.390e-003
	S(6)             5.000e-002  5.000e-002
	Si               2.080e-003  2.080e-003

----------------------------Description of solution----------------------------

                                       pH  =   3.990    
                                       pe  =   7.690    
                        Activity of water  =   0.999
                           Ionic strength  =  1.115e-001
                       Mass of water (kg)  =  1.000e+000
                 Total alkalinity (eq/kg)  = -2.390e-004
                       Total CO2 (mol/kg)  =  4.920e-004
                      Temperature (deg C)  =  25.000
                  Electrical balance (eq)  = -6.699e-003
 Percent error, 100*(Cat-|An|)/(Cat+|An|)  =  -5.93
                               Iterations  =  10
                                  Total H  = 1.110210e+002
                                  Total O  = 5.571554e+001

----------------------------Distribution of species----------------------------

                                                   Log       Log         Log 
   Species                 Molality    Activity  Molality  Activity     Gamma

   H+                    1.246e-004  1.023e-004    -3.904    -3.990    -0.086
   OH-                   1.297e-010  9.770e-011    -9.887   -10.010    -0.123
   H2O                   5.551e+001  9.987e-001     1.744    -0.001     0.000
Al              2.080e-003
   AlSO4+                9.155e-004  7.099e-004    -3.038    -3.149    -0.110
   Al(SO4)2-             7.685e-004  5.959e-004    -3.114    -3.225    -0.110
   Al+3                  3.782e-004  6.416e-005    -3.422    -4.193    -0.770
   AlOH+2                1.720e-005  6.220e-006    -4.764    -5.206    -0.442
   Al(OH)2+              6.135e-007  4.757e-007    -6.212    -6.323    -0.110
   Al(OH)3               6.667e-010  6.841e-010    -9.176    -9.165     0.011
   Al(OH)4-              1.623e-011  1.258e-011   -10.790   -10.900    -0.110
C(4)            4.920e-004
   CO2                   4.891e-004  5.018e-004    -3.311    -3.299     0.011
   HCO3-                 2.786e-006  2.178e-006    -5.555    -5.662    -0.107
   CaHCO3+               8.108e-008  6.340e-008    -7.091    -7.198    -0.107
   MgHCO3+               7.313e-009  5.671e-009    -8.136    -8.246    -0.110
   NaHCO3                1.227e-009  1.259e-009    -8.911    -8.900     0.011
   MnHCO3+               1.159e-010  8.990e-011    -9.936   -10.046    -0.110
   CaCO3                 3.729e-012  3.826e-012   -11.428   -11.417     0.011
   CO3-2                 2.670e-012  9.983e-013   -11.573   -12.001    -0.427
   MgCO3                 2.066e-013  2.119e-013   -12.685   -12.674     0.011
   MnCO3                 1.708e-013  1.753e-013   -12.767   -12.756     0.011
   NaCO3-                2.446e-014  1.897e-014   -13.612   -13.722    -0.110
Ca              1.080e-002
   Ca+2                  6.014e-003  2.281e-003    -2.221    -2.642    -0.421
   CaSO4                 4.786e-003  4.910e-003    -2.320    -2.309     0.011
   CaHCO3+               8.108e-008  6.340e-008    -7.091    -7.198    -0.107
   CaOH+                 4.765e-012  3.695e-012   -11.322   -11.432    -0.110
   CaCO3                 3.729e-012  3.826e-012   -11.428   -11.417     0.011
Cl              1.190e-004
   Cl-                   1.190e-004  9.001e-005    -3.924    -4.046    -0.121
   MnCl+                 1.038e-009  8.050e-010    -8.984    -9.094    -0.110
Fe(2)           3.060e-002
   Fe+2                  1.787e-002  6.948e-003    -1.748    -2.158    -0.410
   FeSO4                 1.273e-002  1.306e-002    -1.895    -1.884     0.011
   FeOH+                 2.765e-008  2.144e-008    -7.558    -7.669    -0.110
Fe(3)           1.990e-007
   Fe(OH)2+              8.797e-008  6.822e-008    -7.056    -7.166    -0.110
   FeOH+2                5.838e-008  2.111e-008    -7.234    -7.676    -0.442
   FeSO4+                3.797e-008  2.945e-008    -7.421    -7.531    -0.110
   Fe(SO4)2-             1.269e-008  9.840e-009    -7.897    -8.007    -0.110
   Fe+3                  1.975e-009  3.350e-010    -8.705    -9.475    -0.770
   Fe(OH)3               7.623e-012  7.822e-012   -11.118   -11.107     0.011
H(0)            6.024e-027
   H2                    3.012e-027  3.090e-027   -26.521   -26.510     0.011
K               7.930e-004
   K+                    7.394e-004  5.593e-004    -3.131    -3.252    -0.121
   KSO4-                 5.356e-005  4.153e-005    -4.271    -4.382    -0.110
   KOH                   1.845e-014  1.893e-014   -13.734   -13.723     0.011
Mg              9.690e-004
   Mg+2                  5.615e-004  2.225e-004    -3.251    -3.653    -0.402
   MgSO4                 4.075e-004  4.181e-004    -3.390    -3.379     0.011
   MgHCO3+               7.313e-009  5.671e-009    -8.136    -8.246    -0.110
   MgOH+                 1.017e-011  7.883e-012   -10.993   -11.103    -0.110
   MgCO3                 2.066e-013  2.119e-013   -12.685   -12.674     0.011
Mn(2)           9.830e-006
   Mn+2                  5.686e-006  2.210e-006    -5.245    -5.656    -0.410
   MnSO4                 4.143e-006  4.250e-006    -5.383    -5.372     0.011
   MnCl+                 1.038e-009  8.050e-010    -8.984    -9.094    -0.110
   MnHCO3+               1.159e-010  8.990e-011    -9.936   -10.046    -0.110
   MnOH+                 7.151e-013  5.545e-013   -12.146   -12.256    -0.110
   MnCO3                 1.708e-013  1.753e-013   -12.767   -12.756     0.011
Na              1.390e-003
   Na+                   1.320e-003  1.025e-003    -2.879    -2.989    -0.110
   NaSO4-                7.001e-005  5.428e-005    -4.155    -4.265    -0.110
   NaHCO3                1.227e-009  1.259e-009    -8.911    -8.900     0.011
   NaOH                  6.441e-014  6.609e-014   -13.191   -13.180     0.011
   NaCO3-                2.446e-014  1.897e-014   -13.612   -13.722    -0.110
O(0)            8.486e-040
   O2                    4.243e-040  4.353e-040   -39.372   -39.361     0.011
S(6)            5.000e-002
   SO4-2                 2.936e-002  1.057e-002    -1.532    -1.976    -0.444
   FeSO4                 1.273e-002  1.306e-002    -1.895    -1.884     0.011
   CaSO4                 4.786e-003  4.910e-003    -2.320    -2.309     0.011
   AlSO4+                9.155e-004  7.099e-004    -3.038    -3.149    -0.110
   Al(SO4)2-             7.685e-004  5.959e-004    -3.114    -3.225    -0.110
   MgSO4                 4.075e-004  4.181e-004    -3.390    -3.379     0.011
   HSO4-                 1.356e-004  1.051e-004    -3.868    -3.978    -0.110
   NaSO4-                7.001e-005  5.428e-005    -4.155    -4.265    -0.110
   KSO4-                 5.356e-005  4.153e-005    -4.271    -4.382    -0.110
   MnSO4                 4.143e-006  4.250e-006    -5.383    -5.372     0.011
   FeSO4+                3.797e-008  2.945e-008    -7.421    -7.531    -0.110
   Fe(SO4)2-             1.269e-008  9.840e-009    -7.897    -8.007    -0.110
Si              2.080e-003
   H4SiO4                2.080e-003  2.134e-003    -2.682    -2.671     0.011
   H3SiO4-               3.224e-009  2.456e-009    -8.492    -8.610    -0.118

------------------------------Saturation indices-------------------------------

	Phase               SI log IAP  log KT

	Calcite          -6.16  -14.64   -8.48  CaCO3
	Fe(OH)3(a)       -2.40    2.49    4.89  Fe(OH)3
	Gibbsite         -0.99    7.78    8.77  Al(OH)3
	Gypsum           -0.04   -4.62   -4.58  CaSO4:2H2O
	Siderite         -3.59  -14.16  -10.57  FeCO3
	SiO2(a)           0.04   -2.67   -2.71  SiO2

-------------------------------------------
Beginning of initial solution calculations.
-------------------------------------------

Initial solution 0.	CONSTANT HEAD in layer 1, row 1, column 1

-----------------------------Solution composition------------------------------

	Elements           Molality       Moles

	Al               2.080e-003  2.080e-003
	C(4)             4.920e-004  4.920e-004
	Ca               1.080e-002  1.080e-002
	Cl               1.190e-004  1.190e-004
	Fe(2)            3.060e-002  3.060e-002
	Fe(3)            1.990e-007  1.990e-007
	K                7.930e-004  7.930e-004
	Mg               9.690e-004  9.690e-004
	Mn(2)            9.830e-006  9.830e-006
	Na               1.390e-003  1.390e-003
	S(6)             5.000e-002  5.000e-002
	Si               2.080e-003  2.080e-003

----------------------------Description of solution----------------------------

                                       pH  =   3.990    
                                       pe  =   7.690    
                        Activity of water  =   0.999
                           Ionic strength  =  1.115e-001
                       Mass of water (kg)  =  1.000e+000
                 Total alkalinity (eq/kg)  = -2.390e-004
                       Total CO2 (mol/kg)  =  4.920e-004
                      Temperature (deg C)  =  25.000
                  Electrical balance (eq)  = -6.699e-003
 Percent error, 100*(Cat-|An|)/(Cat+|An|)  =  -5.93
                               Iterations  =  10
                                  Total H  = 1.110210e+002
                                  Total O  = 5.571554e+001

----------------------------Distribution of species----------------------------

                                                   Log       Log         Log 
   Species                 Molality    Activity  Molality  Activity     Gamma

   H+                    1.246e-004  1.023e-004    -3.904    -3.990    -0.086
   OH-                   1.297e-010  9.770e-011    -9.887   -10.010    -0.123
   H2O                   5.551e+001  9.987e-001     1.744    -0.001     0.000
Al              2.080e-003
   AlSO4+                9.155e-004  7.099e-004    -3.038    -3.149    -0.110
   Al(SO4)2-             7.685e-004  5.959e-004    -3.114    -3.225    -0.110
   Al+3                  3.782e-004  6.416e-005    -3.422    -4.193    -0.770
   AlOH+2                1.720e-005  6.220e-006    -4.764    -5.206    -0.442
   Al(OH)2+              6.135e-007  4.757e-007    -6.212    -6.323    -0.110
   Al(OH)3               6.667e-010  6.841e-010    -9.176    -9.165     0.011
   Al(OH)4-              1.623e-011  1.258e-011   -10.790   -10.900    -0.110
C(4)            4.920e-004
   CO2                   4.891e-004  5.018e-004    -3.311    -3.299     0.011
   HCO3-                 2.786e-006  2.178e-006    -5.555    -5.662    -0.107
   CaHCO3+               8.108e-008  6.340e-008    -7.091    -7.198    -0.107
   MgHCO3+               7.313e-009  5.671e-009    -8.136    -8.246    -0.110
   NaHCO3                1.227e-009  1.259e-009    -8.911    -8.900     0.011
   MnHCO3+               1.159e-010  8.990e-011    -9.936   -10.046    -0.110
   CaCO3                 3.729e-012  3.826e-012   -11.428   -11.417     0.011
   CO3-2                 2.670e-012  9.983e-013   -11.573   -12.001    -0.427
   MgCO3                 2.066e-013  2.119e-013   -12.685   -12.674     0.011
   MnCO3                 1.708e-013  1.753e-013   -12.767   -12.756     0.011
   NaCO3-                2.446e-014  1.897e-014   -13.612   -13.722    -0.110
Ca              1.080e-002
   Ca+2                  6.014e-003  2.281e-003    -2.221    -2.642    -0.421
   CaSO4                 4.786e-003  4.910e-003    -2.320    -2.309     0.011
   CaHCO3+               8.108e-008  6.340e-008    -7.091    -7.198    -0.107
   CaOH+                 4.765e-012  3.695e-012   -11.322   -11.432    -0.110
   CaCO3                 3.729e-012  3.826e-012   -11.428   -11.417     0.011
Cl              1.190e-004
   Cl-                   1.190e-004  9.001e-005    -3.924    -4.046    -0.121
   MnCl+                 1.038e-009  8.050e-010    -8.984    -9.094    -0.110
Fe(2)           3.060e-002
   Fe+2                  1.787e-002  6.948e-003    -1.748    -2.158    -0.410
   FeSO4                 1.273e-002  1.306e-002    -1.895    -1.884     0.011
   FeOH+                 2.765e-008  2.144e-008    -7.558    -7.669    -0.110
Fe(3)           1.990e-007
   Fe(OH)2+              8.797e-008  6.822e-008    -7.056    -7.166    -0.110
   FeOH+2                5.838e-008  2.111e-008    -7.234    -7.676    -0.442
   FeSO4+                3.797e-008  2.945e-008    -7.421    -7.531    -0.110
   Fe(SO4)2-             1.269e-008  9.840e-009    -7.897    -8.007    -0.110
   Fe+3                  1.975e-009  3.350e-010    -8.705    -9.475    -0.770
   Fe(OH)3               7.623e-012  7.822e-012   -11.118   -11.107     0.011
H(0)            6.024e-027
   H2                    3.012e-027  3.090e-027   -26.521   -26.510     0.011
K               7.930e-004
   K+                    7.394e-004  5.593e-004    -3.131    -3.252    -0.121
   KSO4-                 5.356e-005  4.153e-005    -4.271    -4.382    -0.110
   KOH                   1.845e-014  1.893e-014   -13.734   -13.723     0.011
Mg              9.690e-004
   Mg+2                  5.615e-004  2.225e-004    -3.251    -3.653    -0.402
   MgSO4                 4.075e-004  4.181e-004    -3.390    -3.379     0.011
   MgHCO3+               7.313e-009  5.671e-009    -8.136    -8.246    -0.110
   MgOH+                 1.017e-011  7.883e-012   -10.993   -11.103    -0.110
   MgCO3                 2.066e-013  2.119e-013   -12.685   -12.674     0.011
Mn(2)           9.830e-006
   Mn+2                  5.686e-006  2.210e-006    -5.245    -5.656    -0.410
   MnSO4                 4.143e-006  4.250e-006    -5.383    -5.372     0.011
   MnCl+                 1.038e-009  8.050e-010    -8.984    -9.094    -0.110
   MnHCO3+               1.159e-010  8.990e-011    -9.936   -10.046    -0.110
   MnOH+                 7.151e-013  5.545e-013   -12.146   -12.256    -0.110
   MnCO3                 1.708e-013  1.753e-013   -12.767   -12.756     0.011
Na              1.390e-003
   Na+                   1.320e-003  1.025e-003    -2.879    -2.989    -0.110
   NaSO4-                7.001e-005  5.428e-005    -4.155    -4.265    -0.110
   NaHCO3                1.227e-009  1.259e-009    -8.911    -8.900     0.011
   NaOH                  6.441e-014  6.609e-014   -13.191   -13.180     0.011
   NaCO3-                2.446e-014  1.897e-014   -13.612   -13.722    -0.110
O(0)            8.486e-040
   O2                    4.243e-040  4.353e-040   -39.372   -39.361     0.011
S(6)            5.000e-002
   SO4-2                 2.936e-002  1.057e-002    -1.532    -1.976    -0.444
   FeSO4                 1.273e-002  1.306e-002    -1.895    -1.884     0.011
   CaSO4                 4.786e-003  4.910e-003    -2.320    -2.309     0.011
   AlSO4+                9.155e-004  7.099e-004    -3.038    -3.149    -0.110
   Al(SO4)2-             7.685e-004  5.959e-004    -3.114    -3.225    -0.110
   MgSO4                 4.075e-004  4.181e-004    -3.390    -3.379     0.011
   HSO4-                 1.356e-004  1.051e-004    -3.868    -3.978    -0.110
   NaSO4-                7.001e-005  5.428e-005    -4.155    -4.265    -0.110
   KSO4-                 5.356e-005  4.153e-005    -4.271    -4.382    -0.110
   MnSO4                 4.143e-006  4.250e-006    -5.383    -5.372     0.011
   FeSO4+                3.797e-008  2.945e-008    -7.421    -7.531    -0.110
   Fe(SO4)2-             1.269e-008  9.840e-009    -7.897    -8.007    -0.110
Si              2.080e-003
   H4SiO4                2.080e-003  2.134e-003    -2.682    -2.671     0.011
   H3SiO4-               3.224e-009  2.456e-009    -8.492    -8.610    -0.118

------------------------------Saturation indices-------------------------------

	Phase               SI log IAP  log KT

	Calcite          -6.16  -14.64   -8.48  CaCO3
	Fe(OH)3(a)       -2.40    2.49    4.89  Fe(OH)3
	Gibbsite         -0.99    7.78    8.77  Al(OH)3
	Gypsum           -0.04   -4.62   -4.58  CaSO4:2H2O
	Siderite         -3.59  -14.16  -10.57  FeCO3
	SiO2(a)           0.04   -2.67   -2.71  SiO2

-------------------------------------------
Beginning of initial solution calculations.
-------------------------------------------

Initial solution 0.	CONSTANT HEAD in layer 1, row 3, column 1

-----------------------------Solution composition------------------------------

	Elements           Molality       Moles

	Al               2.080e-003  2.080e-003
	C(4)             4.920e-004  4.920e-004
	Ca               1.080e-002  1.080e-002
	Cl               1.190e-004  1.190e-004
	Fe(2)            3.060e-002  3.060e-002
	Fe(3)            1.990e-007  1.990e-007
	K                7.930e-004  7.930e-004
	Mg               9.690e-004  9.690e-004
	Mn(2)            9.830e-006  9.830e-006
	Na               1.390e-003  1.390e-003
	S(6)             5.000e-002  5.000e-002
	Si               2.080e-003  2.080e-003

----------------------------Description of solution----------------------------

                                       pH  =   3.990    
                                       pe  =   7.690    
                        Activity of water  =   0.999
                           Ionic strength  =  1.115e-001
                       Mass of water (kg)  =  1.000e+000
                 Total alkalinity (eq/kg)  = -2.390e-004
                       Total CO2 (mol/kg)  =  4.920e-004
                      Temperature (deg C)  =  25.000
                  Electrical balance (eq)  = -6.699e-003
 Percent error, 100*(Cat-|An|)/(Cat+|An|)  =  -5.93
                               Iterations  =  10
                                  Total H  = 1.110210e+002
                                  Total O  = 5.571554e+001

----------------------------Distribution of species----------------------------

                                                   Log       Log         Log 
   Species                 Molality    Activity  Molality  Activity     Gamma

   H+                    1.246e-004  1.023e-004    -3.904    -3.990    -0.086
   OH-                   1.297e-010  9.770e-011    -9.887   -10.010    -0.123
   H2O                   5.551e+001  9.987e-001     1.744    -0.001     0.000
Al              2.080e-003
   AlSO4+                9.155e-004  7.099e-004    -3.038    -3.149    -0.110
   Al(SO4)2-             7.685e-004  5.959e-004    -3.114    -3.225    -0.110
   Al+3                  3.782e-004  6.416e-005    -3.422    -4.193    -0.770
   AlOH+2                1.720e-005  6.220e-006    -4.764    -5.206    -0.442
   Al(OH)2+              6.135e-007  4.757e-007    -6.212    -6.323    -0.110
   Al(OH)3               6.667e-010  6.841e-010    -9.176    -9.165     0.011
   Al(OH)4-              1.623e-011  1.258e-011   -10.790   -10.900    -0.110
C(4)            4.920e-004
   CO2                   4.891e-004  5.018e-004    -3.311    -3.299     0.011
   HCO3-                 2.786e-006  2.178e-006    -5.555    -5.662    -0.107
   CaHCO3+               8.108e-008  6.340e-008    -7.091    -7.198    -0.107
   MgHCO3+               7.313e-009  5.671e-009    -8.136    -8.246    -0.110
   NaHCO3                1.227e-009  1.259e-009    -8.911    -8.900     0.011
   MnHCO3+               1.159e-010  8.990e-011    -9.936   -10.046    -0.110
   CaCO3                 3.729e-012  3.826e-012   -11.428   -11.417     0.011
   CO3-2                 2.670e-012  9.983e-013   -11.573   -12.001    -0.427
   MgCO3                 2.066e-013  2.119e-013   -12.685   -12.674     0.011
   MnCO3                 1.708e-013  1.753e-013   -12.767   -12.756     0.011
   NaCO3-                2.446e-014  1.897e-014   -13.612   -13.722    -0.110
Ca              1.080e-002
   Ca+2                  6.014e-003  2.281e-003    -2.221    -2.642    -0.421
   CaSO4                 4.786e-003  4.910e-003    -2.320    -2.309     0.011
   CaHCO3+               8.108e-008  6.340e-008    -7.091    -7.198    -0.107
   CaOH+                 4.765e-012  3.695e-012   -11.322   -11.432    -0.110
   CaCO3                 3.729e-012  3.826e-012   -11.428   -11.417     0.011
Cl              1.190e-004
   Cl-                   1.190e-004  9.001e-005    -3.924    -4.046    -0.121
   MnCl+                 1.038e-009  8.050e-010    -8.984    -9.094    -0.110
Fe(2)           3.060e-002
   Fe+2                  1.787e-002  6.948e-003    -1.748    -2.158    -0.410
   FeSO4                 1.273e-002  1.306e-002    -1.895    -1.884     0.011
   FeOH+                 2.765e-008  2.144e-008    -7.558    -7.669    -0.110
Fe(3)           1.990e-007
   Fe(OH)2+              8.797e-008  6.822e-008    -7.056    -7.166    -0.110
   FeOH+2                5.838e-008  2.111e-008    -7.234    -7.676    -0.442
   FeSO4+                3.797e-008  2.945e-008    -7.421    -7.531    -0.110
   Fe(SO4)2-             1.269e-008  9.840e-009    -7.897    -8.007    -0.110
   Fe+3                  1.975e-009  3.350e-010    -8.705    -9.475    -0.770
   Fe(OH)3               7.623e-012  7.822e-012   -11.118   -11.107     0.011
H(0)            6.024e-027
   H2                    3.012e-027  3.090e-027   -26.521   -26.510     0.011
K               7.930e-004
   K+                    7.394e-004  5.593e-004    -3.131    -3.252    -0.121
   KSO4-                 5.356e-005  4.153e-005    -4.271    -4.382    -0.110
   KOH                   1.845e-014  1.893e-014   -13.734   -13.723     0.011
Mg              9.690e-004
   Mg+2                  5.615e-004  2.225e-004    -3.251    -3.653    -0.402
   MgSO4                 4.075e-004  4.181e-004    -3.390    -3.379     0.011
   MgHCO3+               7.313e-009  5.671e-009    -8.136    -8.246    -0.110
   MgOH+                 1.017e-011  7.883e-012   -10.993   -11.103    -0.110
   MgCO3                 2.066e-013  2.119e-013   -12.685   -12.674     0.011
Mn(2)           9.830e-006
   Mn+2                  5.686e-006  2.210e-006    -5.245    -5.656    -0.410
   MnSO4                 4.143e-006  4.250e-006    -5.383    -5.372     0.011
   MnCl+                 1.038e-009  8.050e-010    -8.984    -9.094    -0.110
   MnHCO3+               1.159e-010  8.990e-011    -9.936   -10.046    -0.110
   MnOH+                 7.151e-013  5.545e-013   -12.146   -12.256    -0.110
   MnCO3                 1.708e-013  1.753e-013   -12.767   -12.756     0.011
Na              1.390e-003
   Na+                   1.320e-003  1.025e-003    -2.879    -2.989    -0.110
   NaSO4-                7.001e-005  5.428e-005    -4.155    -4.265    -0.110
   NaHCO3                1.227e-009  1.259e-009    -8.911    -8.900     0.011
   NaOH                  6.441e-014  6.609e-014   -13.191   -13.180     0.011
   NaCO3-                2.446e-014  1.897e-014   -13.612   -13.722    -0.110
O(0)            8.486e-040
   O2                    4.243e-040  4.353e-040   -39.372   -39.361     0.011
S(6)            5.000e-002
   SO4-2                 2.936e-002  1.057e-002    -1.532    -1.976    -0.444
   FeSO4                 1.273e-002  1.306e-002    -1.895    -1.884     0.011
   CaSO4                 4.786e-003  4.910e-003    -2.320    -2.309     0.011
   AlSO4+                9.155e-004  7.099e-004    -3.038    -3.149    -0.110
   Al(SO4)2-             7.685e-004  5.959e-004    -3.114    -3.225    -0.110
   MgSO4                 4.075e-004  4.181e-004    -3.390    -3.379     0.011
   HSO4-                 1.356e-004  1.051e-004    -3.868    -3.978    -0.110
   NaSO4-                7.001e-005  5.428e-005    -4.155    -4.265    -0.110
   KSO4-                 5.356e-005  4.153e-005    -4.271    -4.382    -0.110
   MnSO4                 4.143e-006  4.250e-006    -5.383    -5.372     0.011
   FeSO4+                3.797e-008  2.945e-008    -7.421    -7.531    -0.110
   Fe(SO4)2-             1.269e-008  9.840e-009    -7.897    -8.007    -0.110
Si              2.080e-003
   H4SiO4                2.080e-003  2.134e-003    -2.682    -2.671     0.011
   H3SiO4-               3.224e-009  2.456e-009    -8.492    -8.610    -0.118

------------------------------Saturation indices-------------------------------

	Phase               SI log IAP  log KT

	Calcite          -6.16  -14.64   -8.48  CaCO3
	Fe(OH)3(a)       -2.40    2.49    4.89  Fe(OH)3
	Gibbsite         -0.99    7.78    8.77  Al(OH)3
	Gypsum           -0.04   -4.62   -4.58  CaSO4:2H2O
	Siderite         -3.59  -14.16  -10.57  FeCO3
	SiO2(a)           0.04   -2.67   -2.71  SiO2

-------------------------------------------
Beginning of initial solution calculations.
-------------------------------------------

Initial solution 0.	CONSTANT HEAD in layer 1, row 2, column 1

-----------------------------Solution composition------------------------------

	Elements           Molality       Moles

	Al               2.080e-003  2.080e-003
	C(4)             4.920e-004  4.920e-004
	Ca               1.080e-002  1.080e-002
	Cl               1.190e-004  1.190e-004
	Fe(2)            3.060e-002  3.060e-002
	Fe(3)            1.990e-007  1.990e-007
	K                7.930e-004  7.930e-004
	Mg               9.690e-004  9.690e-004
	Mn(2)            9.830e-006  9.830e-006
	Na               1.390e-003  1.390e-003
	S(6)             5.000e-002  5.000e-002
	Si               2.080e-003  2.080e-003

----------------------------Description of solution----------------------------

                                       pH  =   3.990    
                                       pe  =   7.690    
                        Activity of water  =   0.999
                           Ionic strength  =  1.115e-001
                       Mass of water (kg)  =  1.000e+000
                 Total alkalinity (eq/kg)  = -2.390e-004
                       Total CO2 (mol/kg)  =  4.920e-004
                      Temperature (deg C)  =  25.000
                  Electrical balance (eq)  = -6.699e-003
 Percent error, 100*(Cat-|An|)/(Cat+|An|)  =  -5.93
                               Iterations  =  10
                                  Total H  = 1.110210e+002
                                  Total O  = 5.571554e+001

----------------------------Distribution of species----------------------------

                                                   Log       Log         Log 
   Species                 Molality    Activity  Molality  Activity     Gamma

   H+                    1.246e-004  1.023e-004    -3.904    -3.990    -0.086
   OH-                   1.297e-010  9.770e-011    -9.887   -10.010    -0.123
   H2O                   5.551e+001  9.987e-001     1.744    -0.001     0.000
Al              2.080e-003
   AlSO4+                9.155e-004  7.099e-004    -3.038    -3.149    -0.110
   Al(SO4)2-             7.685e-004  5.959e-004    -3.114    -3.225    -0.110
   Al+3                  3.782e-004  6.416e-005    -3.422    -4.193    -0.770
   AlOH+2                1.720e-005  6.220e-006    -4.764    -5.206    -0.442
   Al(OH)2+              6.135e-007  4.757e-007    -6.212    -6.323    -0.110
   Al(OH)3               6.667e-010  6.841e-010    -9.176    -9.165     0.011
   Al(OH)4-              1.623e-011  1.258e-011   -10.790   -10.900    -0.110
C(4)            4.920e-004
   CO2                   4.891e-004  5.018e-004    -3.311    -3.299     0.011
   HCO3-                 2.786e-006  2.178e-006    -5.555    -5.662    -0.107
   CaHCO3+               8.108e-008  6.340e-008    -7.091    -7.198    -0.107
   MgHCO3+               7.313e-009  5.671e-009    -8.136    -8.246    -0.110
   NaHCO3                1.227e-009  1.259e-009    -8.911    -8.900     0.011
   MnHCO3+               1.159e-010  8.990e-011    -9.936   -10.046    -0.110
   CaCO3                 3.729e-012  3.826e-012   -11.428   -11.417     0.011
   CO3-2                 2.670e-012  9.983e-013   -11.573   -12.001    -0.427
   MgCO3                 2.066e-013  2.119e-013   -12.685   -12.674     0.011
   MnCO3                 1.708e-013  1.753e-013   -12.767   -12.756     0.011
   NaCO3-                2.446e-014  1.897e-014   -13.612   -13.722    -0.110
Ca              1.080e-002
   Ca+2                  6.014e-003  2.281e-003    -2.221    -2.642    -0.421
   CaSO4                 4.786e-003  4.910e-003    -2.320    -2.309     0.011
   CaHCO3+               8.108e-008  6.340e-008    -7.091    -7.198    -0.107
   CaOH+                 4.765e-012  3.695e-012   -11.322   -11.432    -0.110
   CaCO3                 3.729e-012  3.826e-012   -11.428   -11.417     0.011
Cl              1.190e-004
   Cl-                   1.190e-004  9.001e-005    -3.924    -4.046    -0.121
   MnCl+                 1.038e-009  8.050e-010    -8.984    -9.094    -0.110
Fe(2)           3.060e-002
   Fe+2                  1.787e-002  6.948e-003    -1.748    -2.158    -0.410
   FeSO4                 1.273e-002  1.306e-002    -1.895    -1.884     0.011
   FeOH+                 2.765e-008  2.144e-008    -7.558    -7.669    -0.110
Fe(3)           1.990e-007
   Fe(OH)2+              8.797e-008  6.822e-008    -7.056    -7.166    -0.110
   FeOH+2                5.838e-008  2.111e-008    -7.234    -7.676    -0.442
   FeSO4+                3.797e-008  2.945e-008    -7.421    -7.531    -0.110
   Fe(SO4)2-             1.269e-008  9.840e-009    -7.897    -8.007    -0.110
   Fe+3                  1.975e-009  3.350e-010    -8.705    -9.475    -0.770
   Fe(OH)3               7.623e-012  7.822e-012   -11.118   -11.107     0.011
H(0)            6.024e-027
   H2                    3.012e-027  3.090e-027   -26.521   -26.510     0.011
K               7.930e-004
   K+                    7.394e-004  5.593e-004    -3.131    -3.252    -0.121
   KSO4-                 5.356e-005  4.153e-005    -4.271    -4.382    -0.110
   KOH                   1.845e-014  1.893e-014   -13.734   -13.723     0.011
Mg              9.690e-004
   Mg+2                  5.615e-004  2.225e-004    -3.251    -3.653    -0.402
   MgSO4                 4.075e-004  4.181e-004    -3.390    -3.379     0.011
   MgHCO3+               7.313e-009  5.671e-009    -8.136    -8.246    -0.110
   MgOH+                 1.017e-011  7.883e-012   -10.993   -11.103    -0.110
   MgCO3                 2.066e-013  2.119e-013   -12.685   -12.674     0.011
Mn(2)           9.830e-006
   Mn+2                  5.686e-006  2.210e-006    -5.245    -5.656    -0.410
   MnSO4                 4.143e-006  4.250e-006    -5.383    -5.372     0.011
   MnCl+                 1.038e-009  8.050e-010    -8.984    -9.094    -0.110
   MnHCO3+               1.159e-010  8.990e-011    -9.936   -10.046    -0.110
   MnOH+                 7.151e-013  5.545e-013   -12.146   -12.256    -0.110
   MnCO3                 1.708e-013  1.753e-013   -12.767   -12.756     0.011
Na              1.390e-003
   Na+                   1.320e-003  1.025e-003    -2.879    -2.989    -0.110
   NaSO4-                7.001e-005  5.428e-005    -4.155    -4.265    -0.110
   NaHCO3                1.227e-009  1.259e-009    -8.911    -8.900     0.011
   NaOH                  6.441e-014  6.609e-014   -13.191   -13.180     0.011
   NaCO3-                2.446e-014  1.897e-014   -13.612   -13.722    -0.110
O(0)            8.486e-040
   O2                    4.243e-040  4.353e-040   -39.372   -39.361     0.011
S(6)            5.000e-002
   SO4-2                 2.936e-002  1.057e-002    -1.532    -1.976    -0.444
   FeSO4                 1.273e-002  1.306e-002    -1.895    -1.884     0.011
   CaSO4                 4.786e-003  4.910e-003    -2.320    -2.309     0.011
   AlSO4+                9.155e-004  7.099e-004    -3.038    -3.149    -0.110
   Al(SO4)2-             7.685e-004  5.959e-004    -3.114    -3.225    -0.110
   MgSO4                 4.075e-004  4.181e-004    -3.390    -3.379     0.011
   HSO4-                 1.356e-004  1.051e-004    -3.868    -3.978    -0.110
   NaSO4-                7.001e-005  5.428e-005    -4.155    -4.265    -0.110
   KSO4-                 5.356e-005  4.153e-005    -4.271    -4.382    -0.110
   MnSO4                 4.143e-006  4.250e-006    -5.383    -5.372     0.011
   FeSO4+                3.797e-008  2.945e-008    -7.421    -7.531    -0.110
   Fe(SO4)2-             1.269e-008  9.840e-009    -7.897    -8.007    -0.110
Si              2.080e-003
   H4SiO4                2.080e-003  2.134e-003    -2.682    -2.671     0.011
   H3SiO4-               3.224e-009  2.456e-009    -8.492    -8.610    -0.118

------------------------------Saturation indices-------------------------------

	Phase               SI log IAP  log KT

	Calcite          -6.16  -14.64   -8.48  CaCO3
	Fe(OH)3(a)       -2.40    2.49    4.89  Fe(OH)3
	Gibbsite         -0.99    7.78    8.77  Al(OH)3
	Gypsum           -0.04   -4.62   -4.58  CaSO4:2H2O
	Siderite         -3.59  -14.16  -10.57  FeCO3
	SiO2(a)           0.04   -2.67   -2.71  SiO2

-------------------------------------------
Beginning of initial solution calculations.
-------------------------------------------

Initial solution 0.	CONSTANT HEAD in layer 1, row 1, column 1

-----------------------------Solution composition------------------------------

	Elements           Molality       Moles

	Al               2.080e-003  2.080e-003
	C(4)             4.920e-004  4.920e-004
	Ca               1.080e-002  1.080e-002
	Cl               1.190e-004  1.190e-004
	Fe(2)            3.060e-002  3.060e-002
	Fe(3)            1.990e-007  1.990e-007
	K                7.930e-004  7.930e-004
	Mg               9.690e-004  9.690e-004
	Mn(2)            9.830e-006  9.830e-006
	Na               1.390e-003  1.390e-003
	S(6)             5.000e-002  5.000e-002
	Si               2.080e-003  2.080e-003

----------------------------Description of solution----------------------------

                                       pH  =   3.990    
                                       pe  =   7.690    
                        Activity of water  =   0.999
                           Ionic strength  =  1.115e-001
                       Mass of water (kg)  =  1.000e+000
                 Total alkalinity (eq/kg)  = -2.390e-004
                       Total CO2 (mol/kg)  =  4.920e-004
                      Temperature (deg C)  =  25.000
                  Electrical balance (eq)  = -6.699e-003
 Percent error, 100*(Cat-|An|)/(Cat+|An|)  =  -5.93
                               Iterations  =  10
                                  Total H  = 1.110210e+002
                                  Total O  = 5.571554e+001

----------------------------Distribution of species----------------------------

                                                   Log       Log         Log 
   Species                 Molality    Activity  Molality  Activity     Gamma

   H+                    1.246e-004  1.023e-004    -3.904    -3.990    -0.086
   OH-                   1.297e-010  9.770e-011    -9.887   -10.010    -0.123
   H2O                   5.551e+001  9.987e-001     1.744    -0.001     0.000
Al              2.080e-003
   AlSO4+                9.155e-004  7.099e-004    -3.038    -3.149    -0.110
   Al(SO4)2-             7.685e-004  5.959e-004    -3.114    -3.225    -0.110
   Al+3                  3.782e-004  6.416e-005    -3.422    -4.193    -0.770
   AlOH+2                1.720e-005  6.220e-006    -4.764    -5.206    -0.442
   Al(OH)2+              6.135e-007  4.757e-007    -6.212    -6.323    -0.110
   Al(OH)3               6.667e-010  6.841e-010    -9.176    -9.165     0.011
   Al(OH)4-              1.623e-011  1.258e-011   -10.790   -10.900    -0.110
C(4)            4.920e-004
   CO2                   4.891e-004  5.018e-004    -3.311    -3.299     0.011
   HCO3-                 2.786e-006  2.178e-006    -5.555    -5.662    -0.107
   CaHCO3+               8.108e-008  6.340e-008    -7.091    -7.198    -0.107
   MgHCO3+               7.313e-009  5.671e-009    -8.136    -8.246    -0.110
   NaHCO3                1.227e-009  1.259e-009    -8.911    -8.900     0.011
   MnHCO3+               1.159e-010  8.990e-011    -9.936   -10.046    -0.110
   CaCO3                 3.729e-012  3.826e-012   -11.428   -11.417     0.011
   CO3-2                 2.670e-012  9.983e-013   -11.573   -12.001    -0.427
   MgCO3                 2.066e-013  2.119e-013   -12.685   -12.674     0.011
   MnCO3                 1.708e-013  1.753e-013   -12.767   -12.756     0.011
   NaCO3-                2.446e-014  1.897e-014   -13.612   -13.722    -0.110
Ca              1.080e-002
   Ca+2                  6.014e-003  2.281e-003    -2.221    -2.642    -0.421
   CaSO4                 4.786e-003  4.910e-003    -2.320    -2.309     0.011
   CaHCO3+               8.108e-008  6.340e-008    -7.091    -7.198    -0.107
   CaOH+                 4.765e-012  3.695e-012   -11.322   -11.432    -0.110
   CaCO3                 3.729e-012  3.826e-012   -11.428   -11.417     0.011
Cl              1.190e-004
   Cl-                   1.190e-004  9.001e-005    -3.924    -4.046    -0.121
   MnCl+                 1.038e-009  8.050e-010    -8.984    -9.094    -0.110
Fe(2)           3.060e-002
   Fe+2                  1.787e-002  6.948e-003    -1.748    -2.158    -0.410
   FeSO4                 1.273e-002  1.306e-002    -1.895    -1.884     0.011
   FeOH+                 2.765e-008  2.144e-008    -7.558    -7.669    -0.110
Fe(3)           1.990e-007
   Fe(OH)2+              8.797e-008  6.822e-008    -7.056    -7.166    -0.110
   FeOH+2                5.838e-008  2.111e-008    -7.234    -7.676    -0.442
   FeSO4+                3.797e-008  2.945e-008    -7.421    -7.531    -0.110
   Fe(SO4)2-             1.269e-008  9.840e-009    -7.897    -8.007    -0.110
   Fe+3                  1.975e-009  3.350e-010    -8.705    -9.475    -0.770
   Fe(OH)3               7.623e-012  7.822e-012   -11.118   -11.107     0.011
H(0)            6.024e-027
   H2                    3.012e-027  3.090e-027   -26.521   -26.510     0.011
K               7.930e-004
   K+                    7.394e-004  5.593e-004    -3.131    -3.252    -0.121
   KSO4-                 5.356e-005  4.153e-005    -4.271    -4.382    -0.110
   KOH                   1.845e-014  1.893e-014   -13.734   -13.723     0.011
Mg              9.690e-004
   Mg+2                  5.615e-004  2.225e-004    -3.251    -3.653    -0.402
   MgSO4                 4.075e-004  4.181e-004    -3.390    -3.379     0.011
   MgHCO3+               7.313e-009  5.671e-009    -8.136    -8.246    -0.110
   MgOH+                 1.017e-011  7.883e-012   -10.993   -11.103    -0.110
   MgCO3                 2.066e-013  2.119e-013   -12.685   -12.674     0.011
Mn(2)           9.830e-006
   Mn+2                  5.686e-006  2.210e-006    -5.245    -5.656    -0.410
   MnSO4                 4.143e-006  4.250e-006    -5.383    -5.372     0.011
   MnCl+                 1.038e-009  8.050e-010    -8.984    -9.094    -0.110
   MnHCO3+               1.159e-010  8.990e-011    -9.936   -10.046    -0.110
   MnOH+                 7.151e-013  5.545e-013   -12.146   -12.256    -0.110
   MnCO3                 1.708e-013  1.753e-013   -12.767   -12.756     0.011
Na              1.390e-003
   Na+                   1.320e-003  1.025e-003    -2.879    -2.989    -0.110
   NaSO4-                7.001e-005  5.428e-005    -4.155    -4.265    -0.110
   NaHCO3                1.227e-009  1.259e-009    -8.911    -8.900     0.011
   NaOH                  6.441e-014  6.609e-014   -13.191   -13.180     0.011
   NaCO3-                2.446e-014  1.897e-014   -13.612   -13.722    -0.110
O(0)            8.486e-040
   O2                    4.243e-040  4.353e-040   -39.372   -39.361     0.011
S(6)            5.000e-002
   SO4-2                 2.936e-002  1.057e-002    -1.532    -1.976    -0.444
   FeSO4                 1.273e-002  1.306e-002    -1.895    -1.884     0.011
   CaSO4                 4.786e-003  4.910e-003    -2.320    -2.309     0.011
   AlSO4+                9.155e-004  7.099e-004    -3.038    -3.149    -0.110
   Al(SO4)2-             7.685e-004  5.959e-004    -3.114    -3.225    -0.110
   MgSO4                 4.075e-004  4.181e-004    -3.390    -3.379     0.011
   HSO4-                 1.356e-004  1.051e-004    -3.868    -3.978    -0.110
   NaSO4-                7.001e-005  5.428e-005    -4.155    -4.265    -0.110
   KSO4-                 5.356e-005  4.153e-005    -4.271    -4.382    -0.110
   MnSO4                 4.143e-006  4.250e-006    -5.383    -5.372     0.011
   FeSO4+                3.797e-008  2.945e-008    -7.421    -7.531    -0.110
   Fe(SO4)2-             1.269e-008  9.840e-009    -7.897    -8.007    -0.110
Si              2.080e-003
   H4SiO4                2.080e-003  2.134e-003    -2.682    -2.671     0.011
   H3SiO4-               3.224e-009  2.456e-009    -8.492    -8.610    -0.118

------------------------------Saturation indices-------------------------------

	Phase               SI log IAP  log KT

	Calcite          -6.16  -14.64   -8.48  CaCO3
	Fe(OH)3(a)       -2.40    2.49    4.89  Fe(OH)3
	Gibbsite         -0.99    7.78    8.77  Al(OH)3
	Gypsum           -0.04   -4.62   -4.58  CaSO4:2H2O
	Siderite         -3.59  -14.16  -10.57  FeCO3
	SiO2(a)           0.04   -2.67   -2.71  SiO2

-------------------------------------------
Beginning of initial solution calculations.
-------------------------------------------

Initial solution 0.	CONSTANT HEAD in layer 1, row 3, column 1

-----------------------------Solution composition------------------------------

	Elements           Molality       Moles

	Al               2.080e-003  2.080e-003
	C(4)             4.920e-004  4.920e-004
	Ca               1.080e-002  1.080e-002
	Cl               1.190e-004  1.190e-004
	Fe(2)            3.060e-002  3.060e-002
	Fe(3)            1.990e-007  1.990e-007
	K                7.930e-004  7.930e-004
	Mg               9.690e-004  9.690e-004
	Mn(2)            9.830e-006  9.830e-006
	Na               1.390e-003  1.390e-003
	S(6)             5.000e-002  5.000e-002
	Si               2.080e-003  2.080e-003

----------------------------Description of solution----------------------------

                                       pH  =   3.990    
                                       pe  =   7.690    
                        Activity of water  =   0.999
                           Ionic strength  =  1.115e-001
                       Mass of water (kg)  =  1.000e+000
                 Total alkalinity (eq/kg)  = -2.390e-004
                       Total CO2 (mol/kg)  =  4.920e-004
                      Temperature (deg C)  =  25.000
                  Electrical balance (eq)  = -6.699e-003
 Percent error, 100*(Cat-|An|)/(Cat+|An|)  =  -5.93
                               Iterations  =  10
                                  Total H  = 1.110210e+002
                                  Total O  = 5.571554e+001

----------------------------Distribution of species----------------------------

                                                   Log       Log         Log 
   Species                 Molality    Activity  Molality  Activity     Gamma

   H+                    1.246e-004  1.023e-004    -3.904    -3.990    -0.086
   OH-                   1.297e-010  9.770e-011    -9.887   -10.010    -0.123
   H2O                   5.551e+001  9.987e-001     1.744    -0.001     0.000
Al              2.080e-003
   AlSO4+                9.155e-004  7.099e-004    -3.038    -3.149    -0.110
   Al(SO4)2-             7.685e-004  5.959e-004    -3.114    -3.225    -0.110
   Al+3                  3.782e-004  6.416e-005    -3.422    -4.193    -0.770
   AlOH+2                1.720e-005  6.220e-006    -4.764    -5.206    -0.442
   Al(OH)2+              6.135e-007  4.757e-007    -6.212    -6.323    -0.110
   Al(OH)3               6.667e-010  6.841e-010    -9.176    -9.165     0.011
   Al(OH)4-              1.623e-011  1.258e-011   -10.790   -10.900    -0.110
C(4)            4.920e-004
   CO2                   4.891e-004  5.018e-004    -3.311    -3.299     0.011
   HCO3-                 2.786e-006  2.178e-006    -5.555    -5.662    -0.107
   CaHCO3+               8.108e-008  6.340e-008    -7.091    -7.198    -0.107
   MgHCO3+               7.313e-009  5.671e-009    -8.136    -8.246    -0.110
   NaHCO3                1.227e-009  1.259e-009    -8.911    -8.900     0.011
   MnHCO3+               1.159e-010  8.990e-011    -9.936   -10.046    -0.110
   CaCO3                 3.729e-012  3.826e-012   -11.428   -11.417     0.011
   CO3-2                 2.670e-012  9.983e-013   -11.573   -12.001    -0.427
   MgCO3                 2.066e-013  2.119e-013   -12.685   -12.674     0.011
   MnCO3                 1.708e-013  1.753e-013   -12.767   -12.756     0.011
   NaCO3-                2.446e-014  1.897e-014   -13.612   -13.722    -0.110
Ca              1.080e-002
   Ca+2                  6.014e-003  2.281e-003    -2.221    -2.642    -0.421
   CaSO4                 4.786e-003  4.910e-003    -2.320    -2.309     0.011
   CaHCO3+               8.108e-008  6.340e-008    -7.091    -7.198    -0.107
   CaOH+                 4.765e-012  3.695e-012   -11.322   -11.432    -0.110
   CaCO3                 3.729e-012  3.826e-012   -11.428   -11.417     0.011
Cl              1.190e-004
   Cl-                   1.190e-004  9.001e-005    -3.924    -4.046    -0.121
   MnCl+                 1.038e-009  8.050e-010    -8.984    -9.094    -0.110
Fe(2)           3.060e-002
   Fe+2                  1.787e-002  6.948e-003    -1.748    -2.158    -0.410
   FeSO4                 1.273e-002  1.306e-002    -1.895    -1.884     0.011
   FeOH+                 2.765e-008  2.144e-008    -7.558    -7.669    -0.110
Fe(3)           1.990e-007
   Fe(OH)2+              8.797e-008  6.822e-008    -7.056    -7.166    -0.110
   FeOH+2                5.838e-008  2.111e-008    -7.234    -7.676    -0.442
   FeSO4+                3.797e-008  2.945e-008    -7.421    -7.531    -0.110
   Fe(SO4)2-             1.269e-008  9.840e-009    -7.897    -8.007    -0.110
   Fe+3                  1.975e-009  3.350e-010    -8.705    -9.475    -0.770
   Fe(OH)3               7.623e-012  7.822e-012   -11.118   -11.107     0.011
H(0)            6.024e-027
   H2                    3.012e-027  3.090e-027   -26.521   -26.510     0.011
K               7.930e-004
   K+                    7.394e-004  5.593e-004    -3.131    -3.252    -0.121
   KSO4-                 5.356e-005  4.153e-005    -4.271    -4.382    -0.110
   KOH                   1.845e-014  1.893e-014   -13.734   -13.723     0.011
Mg              9.690e-004
   Mg+2                  5.615e-004  2.225e-004    -3.251    -3.653    -0.402
   MgSO4                 4.075e-004  4.181e-004    -3.390    -3.379     0.011
   MgHCO3+               7.313e-009  5.671e-009    -8.136    -8.246    -0.110
   MgOH+                 1.017e-011  7.883e-012   -10.993   -11.103    -0.110
   MgCO3                 2.066e-013  2.119e-013   -12.685   -12.674     0.011
Mn(2)           9.830e-006
   Mn+2                  5.686e-006  2.210e-006    -5.245    -5.656    -0.410
   MnSO4                 4.143e-006  4.250e-006    -5.383    -5.372     0.011
   MnCl+                 1.038e-009  8.050e-010    -8.984    -9.094    -0.110
   MnHCO3+               1.159e-010  8.990e-011    -9.936   -10.046    -0.110
   MnOH+                 7.151e-013  5.545e-013   -12.146   -12.256    -0.110
   MnCO3                 1.708e-013  1.753e-013   -12.767   -12.756     0.011
Na              1.390e-003
   Na+                   1.320e-003  1.025e-003    -2.879    -2.989    -0.110
   NaSO4-                7.001e-005  5.428e-005    -4.155    -4.265    -0.110
   NaHCO3                1.227e-009  1.259e-009    -8.911    -8.900     0.011
   NaOH                  6.441e-014  6.609e-014   -13.191   -13.180     0.011
   NaCO3-                2.446e-014  1.897e-014   -13.612   -13.722    -0.110
O(0)            8.486e-040
   O2                    4.243e-040  4.353e-040   -39.372   -39.361     0.011
S(6)            5.000e-002
   SO4-2                 2.936e-002  1.057e-002    -1.532    -1.976    -0.444
   FeSO4                 1.273e-002  1.306e-002    -1.895    -1.884     0.011
   CaSO4                 4.786e-003  4.910e-003    -2.320    -2.309     0.011
   AlSO4+                9.155e-004  7.099e-004    -3.038    -3.149    -0.110
   Al(SO4)2-             7.685e-004  5.959e-004    -3.114    -3.225    -0.110
   MgSO4                 4.075e-004  4.181e-004    -3.390    -3.379     0.011
   HSO4-                 1.356e-004  1.051e-004    -3.868    -3.978    -0.110
   NaSO4-                7.001e-005  5.428e-005    -4.155    -4.265    -0.110
   KSO4-                 5.356e-005  4.153e-005    -4.271    -4.382    -0.110
   MnSO4                 4.143e-006  4.250e-006    -5.383    -5.372     0.011
   FeSO4+                3.797e-008  2.945e-008    -7.421    -7.531    -0.110
   Fe(SO4)2-             1.269e-008  9.840e-009    -7.897    -8.007    -0.110
Si              2.080e-003
   H4SiO4                2.080e-003  2.134e-003    -2.682    -2.671     0.011
   H3SiO4-               3.224e-009  2.456e-009    -8.492    -8.610    -0.118

------------------------------Saturation indices-------------------------------

	Phase               SI log IAP  log KT

	Calcite          -6.16  -14.64   -8.48  CaCO3
	Fe(OH)3(a)       -2.40    2.49    4.89  Fe(OH)3
	Gibbsite         -0.99    7.78    8.77  Al(OH)3
	Gypsum           -0.04   -4.62   -4.58  CaSO4:2H2O
	Siderite         -3.59  -14.16  -10.57  FeCO3
	SiO2(a)           0.04   -2.67   -2.71  SiO2

-------------------------------------------
Beginning of initial solution calculations.
-------------------------------------------

Initial solution 0.	CONSTANT HEAD in layer 1, row 2, column 1

-----------------------------Solution composition------------------------------

	Elements           Molality       Moles

	Al               2.080e-003  2.080e-003
	C(4)             4.920e-004  4.920e-004
	Ca               1.080e-002  1.080e-002
	Cl               1.190e-004  1.190e-004
	Fe(2)            3.060e-002  3.060e-002
	Fe(3)            1.990e-007  1.990e-007
	K                7.930e-004  7.930e-004
	Mg               9.690e-004  9.690e-004
	Mn(2)            9.830e-006  9.830e-006
	Na               1.390e-003  1.390e-003
	S(6)             5.000e-002  5.000e-002
	Si               2.080e-003  2.080e-003

----------------------------Description of solution----------------------------

                                       pH  =   3.990    
                                       pe  =   7.690    
                        Activity of water  =   0.999
                           Ionic strength  =  1.115e-001
                       Mass of water (kg)  =  1.000e+000
                 Total alkalinity (eq/kg)  = -2.390e-004
                       Total CO2 (mol/kg)  =  4.920e-004
                      Temperature (deg C)  =  25.000
                  Electrical balance (eq)  = -6.699e-003
 Percent error, 100*(Cat-|An|)/(Cat+|An|)  =  -5.93
                               Iterations  =  10
                                  Total H  = 1.110210e+002
                                  Total O  = 5.571554e+001

----------------------------Distribution of species----------------------------

                                                   Log       Log         Log 
   Species                 Molality    Activity  Molality  Activity     Gamma

   H+                    1.246e-004  1.023e-004    -3.904    -3.990    -0.086
   OH-                   1.297e-010  9.770e-011    -9.887   -10.010    -0.123
   H2O                   5.551e+001  9.987e-001     1.744    -0.001     0.000
Al              2.080e-003
   AlSO4+                9.155e-004  7.099e-004    -3.038    -3.149    -0.110
   Al(SO4)2-             7.685e-004  5.959e-004    -3.114    -3.225    -0.110
   Al+3                  3.782e-004  6.416e-005    -3.422    -4.193    -0.770
   AlOH+2                1.720e-005  6.220e-006    -4.764    -5.206    -0.442
   Al(OH)2+              6.135e-007  4.757e-007    -6.212    -6.323    -0.110
   Al(OH)3               6.667e-010  6.841e-010    -9.176    -9.165     0.011
   Al(OH)4-              1.623e-011  1.258e-011   -10.790   -10.900    -0.110
C(4)            4.920e-004
   CO2                   4.891e-004  5.018e-004    -3.311    -3.299     0.011
   HCO3-                 2.786e-006  2.178e-006    -5.555    -5.662    -0.107
   CaHCO3+               8.108e-008  6.340e-008    -7.091    -7.198    -0.107
   MgHCO3+               7.313e-009  5.671e-009    -8.136    -8.246    -0.110
   NaHCO3                1.227e-009  1.259e-009    -8.911    -8.900     0.011
   MnHCO3+               1.159e-010  8.990e-011    -9.936   -10.046    -0.110
   CaCO3                 3.729e-012  3.826e-012   -11.428   -11.417     0.011
   CO3-2                 2.670e-012  9.983e-013   -11.573   -12.001    -0.427
   MgCO3                 2.066e-013  2.119e-013   -12.685   -12.674     0.011
   MnCO3                 1.708e-013  1.753e-013   -12.767   -12.756     0.011
   NaCO3-                2.446e-014  1.897e-014   -13.612   -13.722    -0.110
Ca              1.080e-002
   Ca+2                  6.014e-003  2.281e-003    -2.221    -2.642    -0.421
   CaSO4                 4.786e-003  4.910e-003    -2.320    -2.309     0.011
   CaHCO3+               8.108e-008  6.340e-008    -7.091    -7.198    -0.107
   CaOH+                 4.765e-012  3.695e-012   -11.322   -11.432    -0.110
   CaCO3                 3.729e-012  3.826e-012   -11.428   -11.417     0.011
Cl              1.190e-004
   Cl-                   1.190e-004  9.001e-005    -3.924    -4.046    -0.121
   MnCl+                 1.038e-009  8.050e-010    -8.984    -9.094    -0.110
Fe(2)           3.060e-002
   Fe+2                  1.787e-002  6.948e-003    -1.748    -2.158    -0.410
   FeSO4                 1.273e-002  1.306e-002    -1.895    -1.884     0.011
   FeOH+                 2.765e-008  2.144e-008    -7.558    -7.669    -0.110
Fe(3)           1.990e-007
   Fe(OH)2+              8.797e-008  6.822e-008    -7.056    -7.166    -0.110
   FeOH+2                5.838e-008  2.111e-008    -7.234    -7.676    -0.442
   FeSO4+                3.797e-008  2.945e-008    -7.421    -7.531    -0.110
   Fe(SO4)2-             1.269e-008  9.840e-009    -7.897    -8.007    -0.110
   Fe+3                  1.975e-009  3.350e-010    -8.705    -9.475    -0.770
   Fe(OH)3               7.623e-012  7.822e-012   -11.118   -11.107     0.011
H(0)            6.024e-027
   H2                    3.012e-027  3.090e-027   -26.521   -26.510     0.011
K               7.930e-004
   K+                    7.394e-004  5.593e-004    -3.131    -3.252    -0.121
   KSO4-                 5.356e-005  4.153e-005    -4.271    -4.382    -0.110
   KOH                   1.845e-014  1.893e-014   -13.734   -13.723     0.011
Mg              9.690e-004
   Mg+2                  5.615e-004  2.225e-004    -3.251    -3.653    -0.402
   MgSO4                 4.075e-004  4.181e-004    -3.390    -3.379     0.011
   MgHCO3+               7.313e-009  5.671e-009    -8.136    -8.246    -0.110
   MgOH+                 1.017e-011  7.883e-012   -10.993   -11.103    -0.110
   MgCO3                 2.066e-013  2.119e-013   -12.685   -12.674     0.011
Mn(2)           9.830e-006
   Mn+2                  5.686e-006  2.210e-006    -5.245    -5.656    -0.410
   MnSO4                 4.143e-006  4.250e-006    -5.383    -5.372     0.011
   MnCl+                 1.038e-009  8.050e-010    -8.984    -9.094    -0.110
   MnHCO3+               1.159e-010  8.990e-011    -9.936   -10.046    -0.110
   MnOH+                 7.151e-013  5.545e-013   -12.146   -12.256    -0.110
   MnCO3                 1.708e-013  1.753e-013   -12.767   -12.756     0.011
Na              1.390e-003
   Na+                   1.320e-003  1.025e-003    -2.879    -2.989    -0.110
   NaSO4-                7.001e-005  5.428e-005    -4.155    -4.265    -0.110
   NaHCO3                1.227e-009  1.259e-009    -8.911    -8.900     0.011
   NaOH                  6.441e-014  6.609e-014   -13.191   -13.180     0.011
   NaCO3-                2.446e-014  1.897e-014   -13.612   -13.722    -0.110
O(0)            8.486e-040
   O2                    4.243e-040  4.353e-040   -39.372   -39.361     0.011
S(6)            5.000e-002
   SO4-2                 2.936e-002  1.057e-002    -1.532    -1.976    -0.444
   FeSO4                 1.273e-002  1.306e-002    -1.895    -1.884     0.011
   CaSO4                 4.786e-003  4.910e-003    -2.320    -2.309     0.011
   AlSO4+                9.155e-004  7.099e-004    -3.038    -3.149    -0.110
   Al(SO4)2-             7.685e-004  5.959e-004    -3.114    -3.225    -0.110
   MgSO4                 4.075e-004  4.181e-004    -3.390    -3.379     0.011
   HSO4-                 1.356e-004  1.051e-004    -3.868    -3.978    -0.110
   NaSO4-                7.001e-005  5.428e-005    -4.155    -4.265    -0.110
   KSO4-                 5.356e-005  4.153e-005    -4.271    -4.382    -0.110
   MnSO4                 4.143e-006  4.250e-006    -5.383    -5.372     0.011
   FeSO4+                3.797e-008  2.945e-008    -7.421    -7.531    -0.110
   Fe(SO4)2-             1.269e-008  9.840e-009    -7.897    -8.007    -0.110
Si              2.080e-003
   H4SiO4                2.080e-003  2.134e-003    -2.682    -2.671     0.011
   H3SiO4-               3.224e-009  2.456e-009    -8.492    -8.610    -0.118

------------------------------Saturation indices-------------------------------

	Phase               SI log IAP  log KT

	Calcite          -6.16  -14.64   -8.48  CaCO3
	Fe(OH)3(a)       -2.40    2.49    4.89  Fe(OH)3
	Gibbsite         -0.99    7.78    8.77  Al(OH)3
	Gypsum           -0.04   -4.62   -4.58  CaSO4:2H2O
	Siderite         -3.59  -14.16  -10.57  FeCO3
	SiO2(a)           0.04   -2.67   -2.71  SiO2

-------------------------------------------
Beginning of initial solution calculations.
-------------------------------------------

Initial solution 0.	CONSTANT HEAD in layer 1, row 1, column 1

-----------------------------Solution composition------------------------------

	Elements           Molality       Moles

	Al               2.080e-003  2.080e-003
	C(4)             4.920e-004  4.920e-004
	Ca               1.080e-002  1.080e-002
	Cl               1.190e-004  1.190e-004
	Fe(2)            3.060e-002  3.060e-002
	Fe(3)            1.990e-007  1.990e-007
	K                7.930e-004  7.930e-004
	Mg               9.690e-004  9.690e-004
	Mn(2)            9.830e-006  9.830e-006
	Na               1.390e-003  1.390e-003
	S(6)             5.000e-002  5.000e-002
	Si               2.080e-003  2.080e-003

----------------------------Description of solution----------------------------

                                       pH  =   3.990    
                                       pe  =   7.690    
                        Activity of water  =   0.999
                           Ionic strength  =  1.115e-001
                       Mass of water (kg)  =  1.000e+000
                 Total alkalinity (eq/kg)  = -2.390e-004
                       Total CO2 (mol/kg)  =  4.920e-004
                      Temperature (deg C)  =  25.000
                  Electrical balance (eq)  = -6.699e-003
 Percent error, 100*(Cat-|An|)/(Cat+|An|)  =  -5.93
                               Iterations  =  10
                                  Total H  = 1.110210e+002
                                  Total O  = 5.571554e+001

----------------------------Distribution of species----------------------------

                                                   Log       Log         Log 
   Species                 Molality    Activity  Molality  Activity     Gamma

   H+                    1.246e-004  1.023e-004    -3.904    -3.990    -0.086
   OH-                   1.297e-010  9.770e-011    -9.887   -10.010    -0.123
   H2O                   5.551e+001  9.987e-001     1.744    -0.001     0.000
Al              2.080e-003
   AlSO4+                9.155e-004  7.099e-004    -3.038    -3.149    -0.110
   Al(SO4)2-             7.685e-004  5.959e-004    -3.114    -3.225    -0.110
   Al+3                  3.782e-004  6.416e-005    -3.422    -4.193    -0.770
   AlOH+2                1.720e-005  6.220e-006    -4.764    -5.206    -0.442
   Al(OH)2+              6.135e-007  4.757e-007    -6.212    -6.323    -0.110
   Al(OH)3               6.667e-010  6.841e-010    -9.176    -9.165     0.011
   Al(OH)4-              1.623e-011  1.258e-011   -10.790   -10.900    -0.110
C(4)            4.920e-004
   CO2                   4.891e-004  5.018e-004    -3.311    -3.299     0.011
   HCO3-                 2.786e-006  2.178e-006    -5.555    -5.662    -0.107
   CaHCO3+               8.108e-008  6.340e-008    -7.091    -7.198    -0.107
   MgHCO3+               7.313e-009  5.671e-009    -8.136    -8.246    -0.110
   NaHCO3                1.227e-009  1.259e-009    -8.911    -8.900     0.011
   MnHCO3+               1.159e-010  8.990e-011    -9.936   -10.046    -0.110
   CaCO3                 3.729e-012  3.826e-012   -11.428   -11.417     0.011
   CO3-2                 2.670e-012  9.983e-013   -11.573   -12.001    -0.427
   MgCO3                 2.066e-013  2.119e-013   -12.685   -12.674     0.011
   MnCO3                 1.708e-013  1.753e-013   -12.767   -12.756     0.011
   NaCO3-                2.446e-014  1.897e-014   -13.612   -13.722    -0.110
Ca              1.080e-002
   Ca+2                  6.014e-003  2.281e-003    -2.221    -2.642    -0.421
   CaSO4                 4.786e-003  4.910e-003    -2.320    -2.309     0.011
[...]
   Fe(OH)3               7.623e-012  7.822e-012   -11.118   -11.107     0.011
H(0)            6.024e-027
   H2                    3.012e-027  3.090e-027   -26.521   -26.510     0.011
K               7.930e-004
   K+                    7.394e-004  5.593e-004    -3.131    -3.252    -0.121
   KSO4-                 5.356e-005  4.153e-005    -4.271    -4.382    -0.110
   KOH                   1.845e-014  1.893e-014   -13.734   -13.723     0.011
Mg              9.690e-004
   Mg+2                  5.615e-004  2.225e-004    -3.251    -3.653    -0.402
   MgSO4                 4.075e-004  4.181e-004    -3.390    -3.379     0.011
   MgHCO3+               7.313e-009  5.671e-009    -8.136    -8.246    -0.110
   MgOH+                 1.017e-011  7.883e-012   -10.993   -11.103    -0.110
   MgCO3                 2.066e-013  2.119e-013   -12.685   -12.674     0.011
Mn(2)           9.830e-006
   Mn+2                  5.686e-006  2.210e-006    -5.245    -5.656    -0.410
   MnSO4                 4.143e-006  4.250e-006    -5.383    -5.372     0.011
   MnCl+                 1.038e-009  8.050e-010    -8.984    -9.094    -0.110
   MnHCO3+               1.159e-010  8.990e-011    -9.936   -10.046    -0.110
   MnOH+                 7.151e-013  5.545e-013   -12.146   -12.256    -0.110
   MnCO3                 1.708e-013  1.753e-013   -12.767   -12.756     0.011
Na              1.390e-003
   Na+                   1.320e-003  1.025e-003    -2.879    -2.989    -0.110
   NaSO4-                7.001e-005  5.428e-005    -4.155    -4.265    -0.110
   NaHCO3                1.227e-009  1.259e-009    -8.911    -8.900     0.011
   NaOH                  6.441e-014  6.609e-014   -13.191   -13.180     0.011
   NaCO3-                2.446e-014  1.897e-014   -13.612   -13.722    -0.110
O(0)            8.486e-040
   O2                    4.243e-040  4.353e-040   -39.372   -39.361     0.011
S(6)            5.000e-002
   SO4-2                 2.936e-002  1.057e-002    -1.532    -1.976    -0.444
   FeSO4                 1.273e-002  1.306e-002    -1.895    -1.884     0.011
   CaSO4                 4.786e-003  4.910e-003    -2.320    -2.309     0.011
   AlSO4+                9.155e-004  7.099e-004    -3.038    -3.149    -0.110
   Al(SO4)2-             7.685e-004  5.959e-004    -3.114    -3.225    -0.110
   MgSO4                 4.075e-004  4.181e-004    -3.390    -3.379     0.011
   HSO4-                 1.356e-004  1.051e-004    -3.868    -3.978    -0.110
   NaSO4-                7.001e-005  5.428e-005    -4.155    -4.265    -0.110
   KSO4-                 5.356e-005  4.153e-005    -4.271    -4.382    -0.110
   MnSO4                 4.143e-006  4.250e-006    -5.383    -5.372     0.011
   FeSO4+                3.797e-008  2.945e-008    -7.421    -7.531    -0.110
   Fe(SO4)2-             1.269e-008  9.840e-009    -7.897    -8.007    -0.110
Si              2.080e-003
   H4SiO4                2.080e-003  2.134e-003    -2.682    -2.671     0.011
   H3SiO4-               3.224e-009  2.456e-009    -8.492    -8.610    -0.118

------------------------------Saturation indices-------------------------------

	Phase               SI log IAP  log KT

	Calcite          -6.16  -14.64   -8.48  CaCO3
	Fe(OH)3(a)       -2.40    2.49    4.89  Fe(OH)3
	Gibbsite         -0.99    7.78    8.77  Al(OH)3
	Gypsum           -0.04   -4.62   -4.58  CaSO4:2H2O
	Siderite         -3.59  -14.16  -10.57  FeCO3
	SiO2(a)           0.04   -2.67   -2.71  SiO2

-------------------------------------------
Beginning of initial solution calculations.
-------------------------------------------

Initial solution 0.	CONSTANT HEAD in layer 1, row 2, column 1

-----------------------------Solution composition------------------------------

	Elements           Molality       Moles

	Al               2.080e-003  2.080e-003
	C(4)             4.920e-004  4.920e-004
	Ca               1.080e-002  1.080e-002
	Cl               1.190e-004  1.190e-004
	Fe(2)            3.060e-002  3.060e-002
	Fe(3)            1.990e-007  1.990e-007
	K                7.930e-004  7.930e-004
	Mg               9.690e-004  9.690e-004
	Mn(2)            9.830e-006  9.830e-006
	Na               1.390e-003  1.390e-003
	S(6)             5.000e-002  5.000e-002
	Si               2.080e-003  2.080e-003

----------------------------Description of solution----------------------------

                                       pH  =   3.990    
                                       pe  =   7.690    
                        Activity of water  =   0.999
                           Ionic strength  =  1.115e-001
                       Mass of water (kg)  =  1.000e+000
                 Total alkalinity (eq/kg)  = -2.390e-004
                       Total CO2 (mol/kg)  =  4.920e-004
                      Temperature (deg C)  =  25.000
                  Electrical balance (eq)  = -6.699e-003
 Percent error, 100*(Cat-|An|)/(Cat+|An|)  =  -5.93
                               Iterations  =  10
                                  Total H  = 1.110210e+002
                                  Total O  = 5.571554e+001

----------------------------Distribution of species----------------------------

                                                   Log       Log         Log 
   Species                 Molality    Activity  Molality  Activity     Gamma

   H+                    1.246e-004  1.023e-004    -3.904    -3.990    -0.086
   OH-                   1.297e-010  9.770e-011    -9.887   -10.010    -0.123
   H2O                   5.551e+001  9.987e-001     1.744    -0.001     0.000
Al              2.080e-003
   AlSO4+                9.155e-004  7.099e-004    -3.038    -3.149    -0.110
   Al(SO4)2-             7.685e-004  5.959e-004    -3.114    -3.225    -0.110
   Al+3                  3.782e-004  6.416e-005    -3.422    -4.193    -0.770
   AlOH+2                1.720e-005  6.220e-006    -4.764    -5.206    -0.442
   Al(OH)2+              6.135e-007  4.757e-007    -6.212    -6.323    -0.110
   Al(OH)3               6.667e-010  6.841e-010    -9.176    -9.165     0.011
   Al(OH)4-              1.623e-011  1.258e-011   -10.790   -10.900    -0.110
C(4)            4.920e-004
   CO2                   4.891e-004  5.018e-004    -3.311    -3.299     0.011
   HCO3-                 2.786e-006  2.178e-006    -5.555    -5.662    -0.107
   CaHCO3+               8.108e-008  6.340e-008    -7.091    -7.198    -0.107
   MgHCO3+               7.313e-009  5.671e-009    -8.136    -8.246    -0.110
   NaHCO3                1.227e-009  1.259e-009    -8.911    -8.900     0.011
   MnHCO3+               1.159e-010  8.990e-011    -9.936   -10.046    -0.110
   CaCO3                 3.729e-012  3.826e-012   -11.428   -11.417     0.011
   CO3-2                 2.670e-012  9.983e-013   -11.573   -12.001    -0.427
   MgCO3                 2.066e-013  2.119e-013   -12.685   -12.674     0.011
   MnCO3                 1.708e-013  1.753e-013   -12.767   -12.756     0.011
   NaCO3-                2.446e-014  1.897e-014   -13.612   -13.722    -0.110
Ca              1.080e-002
   Ca+2                  6.014e-003  2.281e-003    -2.221    -2.642    -0.421
   CaSO4                 4.786e-003  4.910e-003    -2.320    -2.309     0.011
   CaHCO3+               8.108e-008  6.340e-008    -7.091    -7.198    -0.107
   CaOH+                 4.765e-012  3.695e-012   -11.322   -11.432    -0.110
   CaCO3                 3.729e-012  3.826e-012   -11.428   -11.417     0.011
Cl              1.190e-004
   Cl-                   1.190e-004  9.001e-005    -3.924    -4.046    -0.121
   MnCl+                 1.038e-009  8.050e-010    -8.984    -9.094    -0.110
Fe(2)           3.060e-002
   Fe+2                  1.787e-002  6.948e-003    -1.748    -2.158    -0.410
   FeSO4                 1.273e-002  1.306e-002    -1.895    -1.884     0.011
   FeOH+                 2.765e-008  2.144e-008    -7.558    -7.669    -0.110
Fe(3)           1.990e-007
   Fe(OH)2+              8.797e-008  6.822e-008    -7.056    -7.166    -0.110
   FeOH+2                5.838e-008  2.111e-008    -7.234    -7.676    -0.442
   FeSO4+                3.797e-008  2.945e-008    -7.421    -7.531    -0.110
   Fe(SO4)2-             1.269e-008  9.840e-009    -7.897    -8.007    -0.110
   Fe+3                  1.975e-009  3.350e-010    -8.705    -9.475    -0.770
   Fe(OH)3               7.623e-012  7.822e-012   -11.118   -11.107     0.011
H(0)            6.024e-027
   H2                    3.012e-027  3.090e-027   -26.521   -26.510     0.011
K               7.930e-004
   K+                    7.394e-004  5.593e-004    -3.131    -3.252    -0.121
   KSO4-                 5.356e-005  4.153e-005    -4.271    -4.382    -0.110
   KOH                   1.845e-014  1.893e-014   -13.734   -13.723     0.011
Mg              9.690e-004
   Mg+2                  5.615e-004  2.225e-004    -3.251    -3.653    -0.402
   MgSO4                 4.075e-004  4.181e-004    -3.390    -3.379     0.011
   MgHCO3+               7.313e-009  5.671e-009    -8.136    -8.246    -0.110
   MgOH+                 1.017e-011  7.883e-012   -10.993   -11.103    -0.110
   MgCO3                 2.066e-013  2.119e-013   -12.685   -12.674     0.011
Mn(2)           9.830e-006
   Mn+2                  5.686e-006  2.210e-006    -5.245    -5.656    -0.410
   MnSO4                 4.143e-006  4.250e-006    -5.383    -5.372     0.011
   MnCl+                 1.038e-009  8.050e-010    -8.984    -9.094    -0.110
   MnHCO3+               1.159e-010  8.990e-011    -9.936   -10.046    -0.110
   MnOH+                 7.151e-013  5.545e-013   -12.146   -12.256    -0.110
   MnCO3                 1.708e-013  1.753e-013   -12.767   -12.756     0.011
Na              1.390e-003
   Na+                   1.320e-003  1.025e-003    -2.879    -2.989    -0.110
   NaSO4-                7.001e-005  5.428e-005    -4.155    -4.265    -0.110
   NaHCO3                1.227e-009  1.259e-009    -8.911    -8.900     0.011
   NaOH                  6.441e-014  6.609e-014   -13.191   -13.180     0.011
   NaCO3-                2.446e-014  1.897e-014   -13.612   -13.722    -0.110
O(0)            8.486e-040
   O2                    4.243e-040  4.353e-040   -39.372   -39.361     0.011
S(6)            5.000e-002
   SO4-2                 2.936e-002  1.057e-002    -1.532    -1.976    -0.444
   FeSO4                 1.273e-002  1.306e-002    -1.895    -1.884     0.011
   CaSO4                 4.786e-003  4.910e-003    -2.320    -2.309     0.011
   AlSO4+                9.155e-004  7.099e-004    -3.038    -3.149    -0.110
   Al(SO4)2-             7.685e-004  5.959e-004    -3.114    -3.225    -0.110
   MgSO4                 4.075e-004  4.181e-004    -3.390    -3.379     0.011
   HSO4-                 1.356e-004  1.051e-004    -3.868    -3.978    -0.110
   NaSO4-                7.001e-005  5.428e-005    -4.155    -4.265    -0.110
   KSO4-                 5.356e-005  4.153e-005    -4.271    -4.382    -0.110
   MnSO4                 4.143e-006  4.250e-006    -5.383    -5.372     0.011
   FeSO4+                3.797e-008  2.945e-008    -7.421    -7.531    -0.110
   Fe(SO4)2-             1.269e-008  9.840e-009    -7.897    -8.007    -0.110
Si              2.080e-003
   H4SiO4                2.080e-003  2.134e-003    -2.682    -2.671     0.011
   H3SiO4-               3.224e-009  2.456e-009    -8.492    -8.610    -0.118

------------------------------Saturation indices-------------------------------

	Phase               SI log IAP  log KT

	Calcite          -6.16  -14.64   -8.48  CaCO3
	Fe(OH)3(a)       -2.40    2.49    4.89  Fe(OH)3
	Gibbsite         -0.99    7.78    8.77  Al(OH)3
	Gypsum           -0.04   -4.62   -4.58  CaSO4:2H2O
	Siderite         -3.59  -14.16  -10.57  FeCO3
	SiO2(a)           0.04   -2.67   -2.71  SiO2

-------------------------------------------
Beginning of initial solution calculations.
-------------------------------------------

Initial solution 0.	CONSTANT HEAD in layer 1, row 1, column 1

-----------------------------Solution composition------------------------------

	Elements           Molality       Moles

	Al               2.080e-003  2.080e-003
	C(4)             4.920e-004  4.920e-004
	Ca               1.080e-002  1.080e-002
	Cl               1.190e-004  1.190e-004
	Fe(2)            3.060e-002  3.060e-002
	Fe(3)            1.990e-007  1.990e-007
	K                7.930e-004  7.930e-004
	Mg               9.690e-004  9.690e-004
	Mn(2)            9.830e-006  9.830e-006
	Na               1.390e-003  1.390e-003
	S(6)             5.000e-002  5.000e-002
	Si               2.080e-003  2.080e-003

----------------------------Description of solution----------------------------

                                       pH  =   3.990    
                                       pe  =   7.690    
                        Activity of water  =   0.999
                           Ionic strength  =  1.115e-001
                       Mass of water (kg)  =  1.000e+000
                 Total alkalinity (eq/kg)  = -2.390e-004
                       Total CO2 (mol/kg)  =  4.920e-004
                      Temperature (deg C)  =  25.000
                  Electrical balance (eq)  = -6.699e-003
 Percent error, 100*(Cat-|An|)/(Cat+|An|)  =  -5.93
                               Iterations  =  10
                                  Total H  = 1.110210e+002
                                  Total O  = 5.571554e+001

----------------------------Distribution of species----------------------------

                                                   Log       Log         Log 
   Species                 Molality    Activity  Molality  Activity     Gamma

   H+                    1.246e-004  1.023e-004    -3.904    -3.990    -0.086
   OH-                   1.297e-010  9.770e-011    -9.887   -10.010    -0.123
   H2O                   5.551e+001  9.987e-001     1.744    -0.001     0.000
Al              2.080e-003
   AlSO4+                9.155e-004  7.099e-004    -3.038    -3.149    -0.110
   Al(SO4)2-             7.685e-004  5.959e-004    -3.114    -3.225    -0.110
   Al+3                  3.782e-004  6.416e-005    -3.422    -4.193    -0.770
   AlOH+2                1.720e-005  6.220e-006    -4.764    -5.206    -0.442
   Al(OH)2+              6.135e-007  4.757e-007    -6.212    -6.323    -0.110
   Al(OH)3               6.667e-010  6.841e-010    -9.176    -9.165     0.011
   Al(OH)4-              1.623e-011  1.258e-011   -10.790   -10.900    -0.110
C(4)            4.920e-004
   CO2                   4.891e-004  5.018e-004    -3.311    -3.299     0.011
   HCO3-                 2.786e-006  2.178e-006    -5.555    -5.662    -0.107
   CaHCO3+               8.108e-008  6.340e-008    -7.091    -7.198    -0.107
   MgHCO3+               7.313e-009  5.671e-009    -8.136    -8.246    -0.110
   NaHCO3                1.227e-009  1.259e-009    -8.911    -8.900     0.011
   MnHCO3+               1.159e-010  8.990e-011    -9.936   -10.046    -0.110
   CaCO3                 3.729e-012  3.826e-012   -11.428   -11.417     0.011
   CO3-2                 2.670e-012  9.983e-013   -11.573   -12.001    -0.427
   MgCO3                 2.066e-013  2.119e-013   -12.685   -12.674     0.011
   MnCO3                 1.708e-013  1.753e-013   -12.767   -12.756     0.011
   NaCO3-                2.446e-014  1.897e-014   -13.612   -13.722    -0.110
Ca              1.080e-002
   Ca+2                  6.014e-003  2.281e-003    -2.221    -2.642    -0.421
   CaSO4                 4.786e-003  4.910e-003    -2.320    -2.309     0.011
   CaHCO3+               8.108e-008  6.340e-008    -7.091    -7.198    -0.107
   CaOH+                 4.765e-012  3.695e-012   -11.322   -11.432    -0.110
   CaCO3                 3.729e-012  3.826e-012   -11.428   -11.417     0.011
Cl              1.190e-004
   Cl-                   1.190e-004  9.001e-005    -3.924    -4.046    -0.121
   MnCl+                 1.038e-009  8.050e-010    -8.984    -9.094    -0.110
Fe(2)           3.060e-002
   Fe+2                  1.787e-002  6.948e-003    -1.748    -2.158    -0.410
   FeSO4                 1.273e-002  1.306e-002    -1.895    -1.884     0.011
   FeOH+                 2.765e-008  2.144e-008    -7.558    -7.669    -0.110
Fe(3)           1.990e-007
   Fe(OH)2+              8.797e-008  6.822e-008    -7.056    -7.166    -0.110
   FeOH+2                5.838e-008  2.111e-008    -7.234    -7.676    -0.442
   FeSO4+                3.797e-008  2.945e-008    -7.421    -7.531    -0.110
   Fe(SO4)2-             1.269e-008  9.840e-009    -7.897    -8.007    -0.110
   Fe+3                  1.975e-009  3.350e-010    -8.705    -9.475    -0.770
   Fe(OH)3               7.623e-012  7.822e-012   -11.118   -11.107     0.011
H(0)            6.024e-027
   H2                    3.012e-027  3.090e-027   -26.521   -26.510     0.011
K               7.930e-004
   K+                    7.394e-004  5.593e-004    -3.131    -3.252    -0.121
   KSO4-                 5.356e-005  4.153e-005    -4.271    -4.382    -0.110
   KOH                   1.845e-014  1.893e-014   -13.734   -13.723     0.011
Mg              9.690e-004
   Mg+2                  5.615e-004  2.225e-004    -3.251    -3.653    -0.402
   MgSO4                 4.075e-004  4.181e-004    -3.390    -3.379     0.011
   MgHCO3+               7.313e-009  5.671e-009    -8.136    -8.246    -0.110
   MgOH+                 1.017e-011  7.883e-012   -10.993   -11.103    -0.110
   MgCO3                 2.066e-013  2.119e-013   -12.685   -12.674     0.011
Mn(2)           9.830e-006
   Mn+2                  5.686e-006  2.210e-006    -5.245    -5.656    -0.410
   MnSO4                 4.143e-006  4.250e-006    -5.383    -5.372     0.011
   MnCl+                 1.038e-009  8.050e-010    -8.984    -9.094    -0.110
   MnHCO3+               1.159e-010  8.990e-011    -9.936   -10.046    -0.110
   MnOH+                 7.151e-013  5.545e-013   -12.146   -12.256    -0.110
   MnCO3                 1.708e-013  1.753e-013   -12.767   -12.756     0.011
Na              1.390e-003
   Na+                   1.320e-003  1.025e-003    -2.879    -2.989    -0.110
   NaSO4-                7.001e-005  5.428e-005    -4.155    -4.265    -0.110
   NaHCO3                1.227e-009  1.259e-009    -8.911    -8.900     0.011
   NaOH                  6.441e-014  6.609e-014   -13.191   -13.180     0.011
   NaCO3-                2.446e-014  1.897e-014   -13.612   -13.722    -0.110
O(0)            8.486e-040
   O2                    4.243e-040  4.353e-040   -39.372   -39.361     0.011
S(6)            5.000e-002
   SO4-2                 2.936e-002  1.057e-002    -1.532    -1.976    -0.444
   FeSO4                 1.273e-002  1.306e-002    -1.895    -1.884     0.011
   CaSO4                 4.786e-003  4.910e-003    -2.320    -2.309     0.011
   AlSO4+                9.155e-004  7.099e-004    -3.038    -3.149    -0.110
   Al(SO4)2-             7.685e-004  5.959e-004    -3.114    -3.225    -0.110
   MgSO4                 4.075e-004  4.181e-004    -3.390    -3.379     0.011
   HSO4-                 1.356e-004  1.051e-004    -3.868    -3.978    -0.110
   NaSO4-                7.001e-005  5.428e-005    -4.155    -4.265    -0.110
   KSO4-                 5.356e-005  4.153e-005    -4.271    -4.382    -0.110
   MnSO4                 4.143e-006  4.250e-006    -5.383    -5.372     0.011
   FeSO4+                3.797e-008  2.945e-008    -7.421    -7.531    -0.110
   Fe(SO4)2-             1.269e-008  9.840e-009    -7.897    -8.007    -0.110
Si              2.080e-003
   H4SiO4                2.080e-003  2.134e-003    -2.682    -2.671     0.011
   H3SiO4-               3.224e-009  2.456e-009    -8.492    -8.610    -0.118

------------------------------Saturation indices-------------------------------

	Phase               SI log IAP  log KT

	Calcite          -6.16  -14.64   -8.48  CaCO3
	Fe(OH)3(a)       -2.40    2.49    4.89  Fe(OH)3
	Gibbsite         -0.99    7.78    8.77  Al(OH)3
	Gypsum           -0.04   -4.62   -4.58  CaSO4:2H2O
	Siderite         -3.59  -14.16  -10.57  FeCO3
	SiO2(a)           0.04   -2.67   -2.71  SiO2

