   Input file: phinp.dat
  Output file: phout.dat
Database file: pht3d_datab.dat

------------------
Reading data base.
------------------

	SOLUTION_MASTER_SPECIES
	SOLUTION_SPECIES
	PHASES
	EXCHANGE_MASTER_SPECIES
	EXCHANGE_SPECIES
	SURFACE_MASTER_SPECIES
	SURFACE_SPECIES
	RATES
	END
------------------------------------
Reading input data for simulation 1.
------------------------------------

	SOLUTION 1 # [K,I,J] = 1,1,1
		units mol/kgw
		water 1.0
		temp 2.500000e+001
		pH 7.000000e+000  # comp 6
		pe 1.250000e+001  # comp 7
		Ca 0.000000e+000  # comp 1
		Cl 0.000000e+000  # comp 2
		K 2.000000e-004  # comp 3
		N(5) 1.200000e-003  # comp 4
		Na 1.000000e-003  # comp 5
	END
-------------------------------------------
Beginning of initial solution calculations.
-------------------------------------------

Initial solution 1.	

-----------------------------Solution composition------------------------------

	Elements           Molality       Moles

	K                2.000e-004  2.000e-004
	N(5)             1.200e-003  1.200e-003
	Na               1.000e-003  1.000e-003

----------------------------Description of solution----------------------------

                                       pH  =   7.000    
                                       pe  =  12.500    
                        Activity of water  =   1.000
                           Ionic strength  =  1.200e-003
                       Mass of water (kg)  =  1.000e+000
                 Total alkalinity (eq/kg)  =  3.385e-010
                    Total carbon (mol/kg)  =  0.000e+000
                       Total CO2 (mol/kg)  =  0.000e+000
                      Temperature (deg C)  =  25.000
                  Electrical balance (eq)  = -3.385e-010
 Percent error, 100*(Cat-|An|)/(Cat+|An|)  =  -0.00
                               Iterations  =   3
                                  Total H  = 1.110124e+002
                                  Total O  = 5.550982e+001

----------------------------Distribution of species----------------------------

                                                   Log       Log         Log 
   Species                 Molality    Activity  Molality  Activity     Gamma

   OH-                   1.041e-007  1.001e-007    -6.983    -7.000    -0.017
   H+                    1.038e-007  1.000e-007    -6.984    -7.000    -0.016
   H2O                   5.551e+001  1.000e+000     1.744    -0.000     0.000
H(0)            0.000e+000
   H2                    0.000e+000  0.000e+000   -42.150   -42.150     0.000
K               2.000e-004
   K+                    2.000e-004  1.923e-004    -3.699    -3.716    -0.017
N(5)            1.200e-003
   NO3-                  1.200e-003  1.154e-003    -2.921    -2.938    -0.017
Na              1.000e-003
   Na+                   1.000e-003  9.621e-004    -3.000    -3.017    -0.017
O(0)            1.663e-008
   O2                    8.315e-009  8.317e-009    -8.080    -8.080     0.000

------------------------------Saturation indices-------------------------------

	Phase               SI log IAP  log KT

	H2(g)           -39.00  -42.15   -3.15  H2
	O2(g)            -5.19   -8.08   -2.89  O2

------------------
End of simulation.
------------------

------------------------------------
Reading input data for simulation 2.
------------------------------------

	EXCHANGE 1
		CaX2 0.000000e+000
		KX 5.507000e-004
		NaX 5.493000e-004
		equilibrate 1
	END
-------------------------------------------------------
Beginning of initial exchange-composition calculations.
-------------------------------------------------------

Exchange 1.	

X               1.100e-003 mol

	                               Equiv-    Equivalent      Log 
	Species             Moles      alents      Fraction     Gamma

	KX               5.503e-004  5.503e-004  5.002e-001     0.000
	NaX              5.492e-004  5.492e-004  4.992e-001     0.000
	HX               5.708e-007  5.708e-007  5.189e-004     0.000

------------------
End of simulation.
------------------

------------------------------------
Reading input data for simulation 3.
------------------------------------

	COPY solution 1 2-40
	COPY exchange 1 2-40
	END
------------------
End of simulation.
------------------

------------------------------------
Reading input data for simulation 4.
------------------------------------

	PRINT
		reset false
-------------------------------------------
Beginning of initial solution calculations.
-------------------------------------------

Initial solution 0.	WELL in layer 1, row 1, column 1

-----------------------------Solution composition------------------------------

	Elements           Molality       Moles

	Ca               6.000e-004  6.000e-004
	Cl               1.200e-003  1.200e-003

----------------------------Description of solution----------------------------

                                       pH  =   7.000    
                                       pe  =  12.500    
                        Activity of water  =   1.000
                           Ionic strength  =  1.800e-003
                       Mass of water (kg)  =  1.000e+000
                 Total alkalinity (eq/kg)  =  1.314e-009
                    Total carbon (mol/kg)  =  0.000e+000
                       Total CO2 (mol/kg)  =  0.000e+000
                      Temperature (deg C)  =  25.000
                  Electrical balance (eq)  = -1.314e-009
 Percent error, 100*(Cat-|An|)/(Cat+|An|)  =  -0.00
                               Iterations  =   4
                                  Total H  = 1.110124e+002
                                  Total O  = 5.550622e+001

----------------------------Distribution of species----------------------------

                                                   Log       Log         Log 
   Species                 Molality    Activity  Molality  Activity     Gamma

   OH-                   1.050e-007  1.001e-007    -6.979    -7.000    -0.021
   H+                    1.045e-007  1.000e-007    -6.981    -7.000    -0.019
   H2O                   5.551e+001  1.000e+000     1.744    -0.000     0.000
Ca              6.000e-004
   Ca+2                  6.000e-004  4.985e-004    -3.222    -3.302    -0.081
   CaOH+                 8.661e-010  8.272e-010    -9.062    -9.082    -0.020
Cl              1.200e-003
   Cl-                   1.200e-003  1.144e-003    -2.921    -2.941    -0.021
H(0)            0.000e+000
   H2                    0.000e+000  0.000e+000   -42.150   -42.150     0.000
O(0)            1.663e-008
   O2                    8.314e-009  8.317e-009    -8.080    -8.080     0.000

------------------------------Saturation indices-------------------------------

	Phase               SI log IAP  log KT

	H2(g)           -39.00  -42.15   -3.15  H2
	O2(g)            -5.19   -8.08   -2.89  O2
	Portlandite     -12.10   10.70   22.80  Ca(OH)2

-------------------------------------------
Beginning of initial solution calculations.
-------------------------------------------

Initial solution 0.	WELL in layer 1, row 1, column 1

-----------------------------Solution composition------------------------------

	Elements           Molality       Moles

	Ca               6.000e-004  6.000e-004
	Cl               1.200e-003  1.200e-003

----------------------------Description of solution----------------------------

                                       pH  =   7.000    
                                       pe  =  12.500    
                        Activity of water  =   1.000
                           Ionic strength  =  1.800e-003
                       Mass of water (kg)  =  1.000e+000
                 Total alkalinity (eq/kg)  =  1.314e-009
                    Total carbon (mol/kg)  =  0.000e+000
                       Total CO2 (mol/kg)  =  0.000e+000
                      Temperature (deg C)  =  25.000
                  Electrical balance (eq)  = -1.314e-009
 Percent error, 100*(Cat-|An|)/(Cat+|An|)  =  -0.00
                               Iterations  =   4
                                  Total H  = 1.110124e+002
                                  Total O  = 5.550622e+001

----------------------------Distribution of species----------------------------

                                                   Log       Log         Log 
   Species                 Molality    Activity  Molality  Activity     Gamma

   OH-                   1.050e-007  1.001e-007    -6.979    -7.000    -0.021
   H+                    1.045e-007  1.000e-007    -6.981    -7.000    -0.019
   H2O                   5.551e+001  1.000e+000     1.744    -0.000     0.000
Ca              6.000e-004
   Ca+2                  6.000e-004  4.985e-004    -3.222    -3.302    -0.081
   CaOH+                 8.661e-010  8.272e-010    -9.062    -9.082    -0.020
Cl              1.200e-003
   Cl-                   1.200e-003  1.144e-003    -2.921    -2.941    -0.021
H(0)            0.000e+000
   H2                    0.000e+000  0.000e+000   -42.150   -42.150     0.000
O(0)            1.663e-008
   O2                    8.314e-009  8.317e-009    -8.080    -8.080     0.000

------------------------------Saturation indices-------------------------------

	Phase               SI log IAP  log KT

	H2(g)           -39.00  -42.15   -3.15  H2
	O2(g)            -5.19   -8.08   -2.89  O2
	Portlandite     -12.10   10.70   22.80  Ca(OH)2

-------------------------------------------
Beginning of initial solution calculations.
-------------------------------------------

Initial solution 0.	WELL in layer 1, row 1, column 1

-----------------------------Solution composition------------------------------

	Elements           Molality       Moles

	Ca               6.000e-004  6.000e-004
	Cl               1.200e-003  1.200e-003

----------------------------Description of solution----------------------------

                                       pH  =   7.000    
                                       pe  =  12.500    
                        Activity of water  =   1.000
                           Ionic strength  =  1.800e-003
                       Mass of water (kg)  =  1.000e+000
                 Total alkalinity (eq/kg)  =  1.314e-009
                    Total carbon (mol/kg)  =  0.000e+000
                       Total CO2 (mol/kg)  =  0.000e+000
                      Temperature (deg C)  =  25.000
                  Electrical balance (eq)  = -1.314e-009
 Percent error, 100*(Cat-|An|)/(Cat+|An|)  =  -0.00
                               Iterations  =   4
                                  Total H  = 1.110124e+002
                                  Total O  = 5.550622e+001

----------------------------Distribution of species----------------------------

                                                   Log       Log         Log 
   Species                 Molality    Activity  Molality  Activity     Gamma

   OH-                   1.050e-007  1.001e-007    -6.979    -7.000    -0.021
   H+                    1.045e-007  1.000e-007    -6.981    -7.000    -0.019
   H2O                   5.551e+001  1.000e+000     1.744    -0.000     0.000
Ca              6.000e-004
   Ca+2                  6.000e-004  4.985e-004    -3.222    -3.302    -0.081
   CaOH+                 8.661e-010  8.272e-010    -9.062    -9.082    -0.020
Cl              1.200e-003
   Cl-                   1.200e-003  1.144e-003    -2.921    -2.941    -0.021
H(0)            0.000e+000
   H2                    0.000e+000  0.000e+000   -42.150   -42.150     0.000
O(0)            1.663e-008
   O2                    8.314e-009  8.317e-009    -8.080    -8.080     0.000

------------------------------Saturation indices-------------------------------

	Phase               SI log IAP  log KT

	H2(g)           -39.00  -42.15   -3.15  H2
	O2(g)            -5.19   -8.08   -2.89  O2
	Portlandite     -12.10   10.70   22.80  Ca(OH)2

-------------------------------------------
Beginning of initial solution calculations.
-------------------------------------------

Initial solution 0.	WELL in layer 1, row 1, column 1

-----------------------------Solution composition------------------------------

	Elements           Molality       Moles

	Ca               6.000e-004  6.000e-004
	Cl               1.200e-003  1.200e-003

----------------------------Description of solution----------------------------

                                       pH  =   7.000    
                                       pe  =  12.500    
                        Activity of water  =   1.000
                           Ionic strength  =  1.800e-003
                       Mass of water (kg)  =  1.000e+000
                 Total alkalinity (eq/kg)  =  1.314e-009
                    Total carbon (mol/kg)  =  0.000e+000
                       Total CO2 (mol/kg)  =  0.000e+000
                      Temperature (deg C)  =  25.000
                  Electrical balance (eq)  = -1.314e-009
 Percent error, 100*(Cat-|An|)/(Cat+|An|)  =  -0.00
                               Iterations  =   4
                                  Total H  = 1.110124e+002
                                  Total O  = 5.550622e+001

----------------------------Distribution of species----------------------------

                                                   Log       Log         Log 
   Species                 Molality    Activity  Molality  Activity     Gamma

   OH-                   1.050e-007  1.001e-007    -6.979    -7.000    -0.021
   H+                    1.045e-007  1.000e-007    -6.981    -7.000    -0.019
   H2O                   5.551e+001  1.000e+000     1.744    -0.000     0.000
Ca              6.000e-004
   Ca+2                  6.000e-004  4.985e-004    -3.222    -3.302    -0.081
   CaOH+                 8.661e-010  8.272e-010    -9.062    -9.082    -0.020
Cl              1.200e-003
   Cl-                   1.200e-003  1.144e-003    -2.921    -2.941    -0.021
H(0)            0.000e+000
   H2                    0.000e+000  0.000e+000   -42.150   -42.150     0.000
O(0)            1.663e-008
   O2                    8.314e-009  8.317e-009    -8.080    -8.080     0.000

------------------------------Saturation indices-------------------------------

	Phase               SI log IAP  log KT

	H2(g)           -39.00  -42.15   -3.15  H2
	O2(g)            -5.19   -8.08   -2.89  O2
	Portlandite     -12.10   10.70   22.80  Ca(OH)2

-------------------------------------------
Beginning of initial solution calculations.
-------------------------------------------

Initial solution 0.	WELL in layer 1, row 1, column 1

-----------------------------Solution composition------------------------------

	Elements           Molality       Moles

	Ca               6.000e-004  6.000e-004
	Cl               1.200e-003  1.200e-003

----------------------------Description of solution----------------------------

                                       pH  =   7.000    
                                       pe  =  12.500    
                        Activity of water  =   1.000
                           Ionic strength  =  1.800e-003
                       Mass of water (kg)  =  1.000e+000
                 Total alkalinity (eq/kg)  =  1.314e-009
                    Total carbon (mol/kg)  =  0.000e+000
                       Total CO2 (mol/kg)  =  0.000e+000
                      Temperature (deg C)  =  25.000
                  Electrical balance (eq)  = -1.314e-009
 Percent error, 100*(Cat-|An|)/(Cat+|An|)  =  -0.00
                               Iterations  =   4
                                  Total H  = 1.110124e+002
                                  Total O  = 5.550622e+001

----------------------------Distribution of species----------------------------

                                                   Log       Log         Log 
   Species                 Molality    Activity  Molality  Activity     Gamma

   OH-                   1.050e-007  1.001e-007    -6.979    -7.000    -0.021
   H+                    1.045e-007  1.000e-007    -6.981    -7.000    -0.019
   H2O                   5.551e+001  1.000e+000     1.744    -0.000     0.000
Ca              6.000e-004
   Ca+2                  6.000e-004  4.985e-004    -3.222    -3.302    -0.081
   CaOH+                 8.661e-010  8.272e-010    -9.062    -9.082    -0.020
Cl              1.200e-003
   Cl-                   1.200e-003  1.144e-003    -2.921    -2.941    -0.021
H(0)            0.000e+000
   H2                    0.000e+000  0.000e+000   -42.150   -42.150     0.000
O(0)            1.663e-008
   O2                    8.314e-009  8.317e-009    -8.080    -8.080     0.000

------------------------------Saturation indices-------------------------------

	Phase               SI log IAP  log KT

	H2(g)           -39.00  -42.15   -3.15  H2
	O2(g)            -5.19   -8.08   -2.89  O2
	Portlandite     -12.10   10.70   22.80  Ca(OH)2

-------------------------------------------
Beginning of initial solution calculations.
-------------------------------------------

Initial solution 0.	WELL in layer 1, row 1, column 1

-----------------------------Solution composition------------------------------

	Elements           Molality       Moles

	Ca               6.000e-004  6.000e-004
	Cl               1.200e-003  1.200e-003

----------------------------Description of solution----------------------------

                                       pH  =   7.000    
                                       pe  =  12.500    
                        Activity of water  =   1.000
                           Ionic strength  =  1.800e-003
                       Mass of water (kg)  =  1.000e+000
                 Total alkalinity (eq/kg)  =  1.314e-009
                    Total carbon (mol/kg)  =  0.000e+000
                       Total CO2 (mol/kg)  =  0.000e+000
                      Temperature (deg C)  =  25.000
                  Electrical balance (eq)  = -1.314e-009
 Percent error, 100*(Cat-|An|)/(Cat+|An|)  =  -0.00
                               Iterations  =   4
                                  Total H  = 1.110124e+002
                                  Total O  = 5.550622e+001

----------------------------Distribution of species----------------------------

                                                   Log       Log         Log 
   Species                 Molality    Activity  Molality  Activity     Gamma

   OH-                   1.050e-007  1.001e-007    -6.979    -7.000    -0.021
   H+                    1.045e-007  1.000e-007    -6.981    -7.000    -0.019
   H2O                   5.551e+001  1.000e+000     1.744    -0.000     0.000
Ca              6.000e-004
   Ca+2                  6.000e-004  4.985e-004    -3.222    -3.302    -0.081
   CaOH+                 8.661e-010  8.272e-010    -9.062    -9.082    -0.020
Cl              1.200e-003
   Cl-                   1.200e-003  1.144e-003    -2.921    -2.941    -0.021
H(0)            0.000e+000
   H2                    0.000e+000  0.000e+000   -42.150   -42.150     0.000
O(0)            1.663e-008
   O2                    8.314e-009  8.317e-009    -8.080    -8.080     0.000

------------------------------Saturation indices-------------------------------

	Phase               SI log IAP  log KT

	H2(g)           -39.00  -42.15   -3.15  H2
	O2(g)            -5.19   -8.08   -2.89  O2
	Portlandite     -12.10   10.70   22.80  Ca(OH)2

-------------------------------------------
Beginning of initial solution calculations.
-------------------------------------------

Initial solution 0.	WELL in layer 1, row 1, column 1

-----------------------------Solution composition------------------------------

	Elements           Molality       Moles

	Ca               6.000e-004  6.000e-004
	Cl               1.200e-003  1.200e-003

----------------------------Description of solution----------------------------

                                       pH  =   7.000    
                                       pe  =  12.500    
                        Activity of water  =   1.000
                           Ionic strength  =  1.800e-003
                       Mass of water (kg)  =  1.000e+000
                 Total alkalinity (eq/kg)  =  1.314e-009
                    Total carbon (mol/kg)  =  0.000e+000
                       Total CO2 (mol/kg)  =  0.000e+000
                      Temperature (deg C)  =  25.000
                  Electrical balance (eq)  = -1.314e-009
 Percent error, 100*(Cat-|An|)/(Cat+|An|)  =  -0.00
                               Iterations  =   4
                                  Total H  = 1.110124e+002
                                  Total O  = 5.550622e+001

----------------------------Distribution of species----------------------------

                                                   Log       Log         Log 
   Species                 Molality    Activity  Molality  Activity     Gamma

   OH-                   1.050e-007  1.001e-007    -6.979    -7.000    -0.021
   H+                    1.045e-007  1.000e-007    -6.981    -7.000    -0.019
   H2O                   5.551e+001  1.000e+000     1.744    -0.000     0.000
Ca              6.000e-004
   Ca+2                  6.000e-004  4.985e-004    -3.222    -3.302    -0.081
   CaOH+                 8.661e-010  8.272e-010    -9.062    -9.082    -0.020
Cl              1.200e-003
   Cl-                   1.200e-003  1.144e-003    -2.921    -2.941    -0.021
H(0)            0.000e+000
   H2                    0.000e+000  0.000e+000   -42.150   -42.150     0.000
O(0)            1.663e-008
   O2                    8.314e-009  8.317e-009    -8.080    -8.080     0.000

------------------------------Saturation indices-------------------------------

	Phase               SI log IAP  log KT

	H2(g)           -39.00  -42.15   -3.15  H2
	O2(g)            -5.19   -8.08   -2.89  O2
	Portlandite     -12.10   10.70   22.80  Ca(OH)2

-------------------------------------------
Beginning of initial solution calculations.
-------------------------------------------

Initial solution 0.	WELL in layer 1, row 1, column 1

-----------------------------Solution composition------------------------------

	Elements           Molality       Moles

	Ca               6.000e-004  6.000e-004
	Cl               1.200e-003  1.200e-003

----------------------------Description of solution----------------------------

                                       pH  =   7.000    
                                       pe  =  12.500    
                        Activity of water  =   1.000
                           Ionic strength  =  1.800e-003
                       Mass of water (kg)  =  1.000e+000
                 Total alkalinity (eq/kg)  =  1.314e-009
                    Total carbon (mol/kg)  =  0.000e+000
                       Total CO2 (mol/kg)  =  0.000e+000
                      Temperature (deg C)  =  25.000
                  Electrical balance (eq)  = -1.314e-009
 Percent error, 100*(Cat-|An|)/(Cat+|An|)  =  -0.00
                               Iterations  =   4
                                  Total H  = 1.110124e+002
                                  Total O  = 5.550622e+001

----------------------------Distribution of species----------------------------

                                                   Log       Log         Log 
   Species                 Molality    Activity  Molality  Activity     Gamma

   OH-                   1.050e-007  1.001e-007    -6.979    -7.000    -0.021
   H+                    1.045e-007  1.000e-007    -6.981    -7.000    -0.019
   H2O                   5.551e+001  1.000e+000     1.744    -0.000     0.000
Ca              6.000e-004
   Ca+2                  6.000e-004  4.985e-004    -3.222    -3.302    -0.081
   CaOH+                 8.661e-010  8.272e-010    -9.062    -9.082    -0.020
Cl              1.200e-003
   Cl-                   1.200e-003  1.144e-003    -2.921    -2.941    -0.021
H(0)            0.000e+000
   H2                    0.000e+000  0.000e+000   -42.150   -42.150     0.000
O(0)            1.663e-008
   O2                    8.314e-009  8.317e-009    -8.080    -8.080     0.000

------------------------------Saturation indices-------------------------------

	Phase               SI log IAP  log KT

	H2(g)           -39.00  -42.15   -3.15  H2
	O2(g)            -5.19   -8.08   -2.89  O2
	Portlandite     -12.10   10.70   22.80  Ca(OH)2

-------------------------------------------
Beginning of initial solution calculations.
-------------------------------------------

Initial solution 0.	WELL in layer 1, row 1, column 1

-----------------------------Solution composition------------------------------

	Elements           Molality       Moles

	Ca               6.000e-004  6.000e-004
	Cl               1.200e-003  1.200e-003

----------------------------Description of solution----------------------------

                                       pH  =   7.000    
                                       pe  =  12.500    
                        Activity of water  =   1.000
                           Ionic strength  =  1.800e-003
                       Mass of water (kg)  =  1.000e+000
                 Total alkalinity (eq/kg)  =  1.314e-009
                    Total carbon (mol/kg)  =  0.000e+000
                       Total CO2 (mol/kg)  =  0.000e+000
                      Temperature (deg C)  =  25.000
                  Electrical balance (eq)  = -1.314e-009
 Percent error, 100*(Cat-|An|)/(Cat+|An|)  =  -0.00
                               Iterations  =   4
                                  Total H  = 1.110124e+002
                                  Total O  = 5.550622e+001

----------------------------Distribution of species----------------------------

                                                   Log       Log         Log 
   Species                 Molality    Activity  Molality  Activity     Gamma

   OH-                   1.050e-007  1.001e-007    -6.979    -7.000    -0.021
   H+                    1.045e-007  1.000e-007    -6.981    -7.000    -0.019
   H2O                   5.551e+001  1.000e+000     1.744    -0.000     0.000
Ca              6.000e-004
   Ca+2                  6.000e-004  4.985e-004    -3.222    -3.302    -0.081
   CaOH+                 8.661e-010  8.272e-010    -9.062    -9.082    -0.020
Cl              1.200e-003
   Cl-                   1.200e-003  1.144e-003    -2.921    -2.941    -0.021
H(0)            0.000e+000
   H2                    0.000e+000  0.000e+000   -42.150   -42.150     0.000
O(0)            1.663e-008
   O2                    8.314e-009  8.317e-009    -8.080    -8.080     0.000

------------------------------Saturation indices-------------------------------

	Phase               SI log IAP  log KT

	H2(g)           -39.00  -42.15   -3.15  H2
	O2(g)            -5.19   -8.08   -2.89  O2
	Portlandite     -12.10   10.70   22.80  Ca(OH)2

-------------------------------------------
Beginning of initial solution calculations.
-------------------------------------------

Initial solution 0.	WELL in layer 1, row 1, column 1

-----------------------------Solution composition------------------------------

	Elements           Molality       Moles

	Ca               6.000e-004  6.000e-004
	Cl               1.200e-003  1.200e-003

----------------------------Description of solution----------------------------

                                       pH  =   7.000    
                                       pe  =  12.500    
                        Activity of water  =   1.000
                           Ionic strength  =  1.800e-003
                       Mass of water (kg)  =  1.000e+000
                 Total alkalinity (eq/kg)  =  1.314e-009
                    Total carbon (mol/kg)  =  0.000e+000
                       Total CO2 (mol/kg)  =  0.000e+000
                      Temperature (deg C)  =  25.000
                  Electrical balance (eq)  = -1.314e-009
 Percent error, 100*(Cat-|An|)/(Cat+|An|)  =  -0.00
                               Iterations  =   4
                                  Total H  = 1.110124e+002
                                  Total O  = 5.550622e+001

----------------------------Distribution of species----------------------------

                                                   Log       Log         Log 
   Species                 Molality    Activity  Molality  Activity     Gamma

   OH-                   1.050e-007  1.001e-007    -6.979    -7.000    -0.021
   H+                    1.045e-007  1.000e-007    -6.981    -7.000    -0.019
   H2O                   5.551e+001  1.000e+000     1.744    -0.000     0.000
Ca              6.000e-004
   Ca+2                  6.000e-004  4.985e-004    -3.222    -3.302    -0.081
   CaOH+                 8.661e-010  8.272e-010    -9.062    -9.082    -0.020
Cl              1.200e-003
   Cl-                   1.200e-003  1.144e-003    -2.921    -2.941    -0.021
H(0)            0.000e+000
   H2                    0.000e+000  0.000e+000   -42.150   -42.150     0.000
O(0)            1.663e-008
   O2                    8.314e-009  8.317e-009    -8.080    -8.080     0.000

------------------------------Saturation indices-------------------------------

	Phase               SI log IAP  log KT

	H2(g)           -39.00  -42.15   -3.15  H2
	O2(g)            -5.19   -8.08   -2.89  O2
	Portlandite     -12.10   10.70   22.80  Ca(OH)2

-------------------------------------------
Beginning of initial solution calculations.
-------------------------------------------

Initial solution 0.	WELL in layer 1, row 1, column 1

-----------------------------Solution composition------------------------------

	Elements           Molality       Moles

	Ca               6.000e-004  6.000e-004
	Cl               1.200e-003  1.200e-003

----------------------------Description of solution----------------------------

                                       pH  =   7.000    
                                       pe  =  12.500    
                        Activity of water  =   1.000
                           Ionic strength  =  1.800e-003
                       Mass of water (kg)  =  1.000e+000
                 Total alkalinity (eq/kg)  =  1.314e-009
                    Total carbon (mol/kg)  =  0.000e+000
                       Total CO2 (mol/kg)  =  0.000e+000
                      Temperature (deg C)  =  25.000
                  Electrical balance (eq)  = -1.314e-009
 Percent error, 100*(Cat-|An|)/(Cat+|An|)  =  -0.00
                               Iterations  =   4
                                  Total H  = 1.110124e+002
                                  Total O  = 5.550622e+001

----------------------------Distribution of species----------------------------

                                                   Log       Log         Log 
   Species                 Molality    Activity  Molality  Activity     Gamma

   OH-                   1.050e-007  1.001e-007    -6.979    -7.000    -0.021
   H+                    1.045e-007  1.000e-007    -6.981    -7.000    -0.019
   H2O                   5.551e+001  1.000e+000     1.744    -0.000     0.000
Ca              6.000e-004
   Ca+2                  6.000e-004  4.985e-004    -3.222    -3.302    -0.081
   CaOH+                 8.661e-010  8.272e-010    -9.062    -9.082    -0.020
Cl              1.200e-003
   Cl-                   1.200e-003  1.144e-003    -2.921    -2.941    -0.021
H(0)            0.000e+000
   H2                    0.000e+000  0.000e+000   -42.150   -42.150     0.000
O(0)            1.663e-008
   O2                    8.314e-009  8.317e-009    -8.080    -8.080     0.000

------------------------------Saturation indices-------------------------------

	Phase               SI log IAP  log KT

	H2(g)           -39.00  -42.15   -3.15  H2
	O2(g)            -5.19   -8.08   -2.89  O2
	Portlandite     -12.10   10.70   22.80  Ca(OH)2

-------------------------------------------
Beginning of initial solution calculations.
-------------------------------------------

Initial solution 0.	WELL in layer 1, row 1, column 1

-----------------------------Solution composition------------------------------

	Elements           Molality       Moles

	Ca               6.000e-004  6.000e-004
	Cl               1.200e-003  1.200e-003

----------------------------Description of solution----------------------------

                                       pH  =   7.000    
                                       pe  =  12.500    
                        Activity of water  =   1.000
                           Ionic strength  =  1.800e-003
                       Mass of water (kg)  =  1.000e+000
                 Total alkalinity (eq/kg)  =  1.314e-009
                    Total carbon (mol/kg)  =  0.000e+000
                       Total CO2 (mol/kg)  =  0.000e+000
                      Temperature (deg C)  =  25.000
                  Electrical balance (eq)  = -1.314e-009
 Percent error, 100*(Cat-|An|)/(Cat+|An|)  =  -0.00
                               Iterations  =   4
                                  Total H  = 1.110124e+002
                                  Total O  = 5.550622e+001

----------------------------Distribution of species----------------------------

                                                   Log       Log         Log 
   Species                 Molality    Activity  Molality  Activity     Gamma

   OH-                   1.050e-007  1.001e-007    -6.979    -7.000    -0.021
   H+                    1.045e-007  1.000e-007    -6.981    -7.000    -0.019
   H2O                   5.551e+001  1.000e+000     1.744    -0.000     0.000
Ca              6.000e-004
   Ca+2                  6.000e-004  4.985e-004    -3.222    -3.302    -0.081
   CaOH+                 8.661e-010  8.272e-010    -9.062    -9.082    -0.020
Cl              1.200e-003
   Cl-                   1.200e-003  1.144e-003    -2.921    -2.941    -0.021
H(0)            0.000e+000
   H2                    0.000e+000  0.000e+000   -42.150   -42.150     0.000
O(0)            1.663e-008
   O2                    8.314e-009  8.317e-009    -8.080    -8.080     0.000

------------------------------Saturation indices-------------------------------

	Phase               SI log IAP  log KT

	H2(g)           -39.00  -42.15   -3.15  H2
	O2(g)            -5.19   -8.08   -2.89  O2
	Portlandite     -12.10   10.70   22.80  Ca(OH)2

-------------------------------------------
Beginning of initial solution calculations.
-------------------------------------------

Initial solution 0.	WELL in layer 1, row 1, column 1

-----------------------------Solution composition------------------------------

	Elements           Molality       Moles

	Ca               6.000e-004  6.000e-004
	Cl               1.200e-003  1.200e-003

----------------------------Description of solution----------------------------

                                       pH  =   7.000    
                                       pe  =  12.500    
                        Activity of water  =   1.000
                           Ionic strength  =  1.800e-003
                       Mass of water (kg)  =  1.000e+000
                 Total alkalinity (eq/kg)  =  1.314e-009
                    Total carbon (mol/kg)  =  0.000e+000
                       Total CO2 (mol/kg)  =  0.000e+000
                      Temperature (deg C)  =  25.000
                  Electrical balance (eq)  = -1.314e-009
 Percent error, 100*(Cat-|An|)/(Cat+|An|)  =  -0.00
                               Iterations  =   4
                                  Total H  = 1.110124e+002
                                  Total O  = 5.550622e+001

----------------------------Distribution of species----------------------------

                                                   Log       Log         Log 
   Species                 Molality    Activity  Molality  Activity     Gamma

   OH-                   1.050e-007  1.001e-007    -6.979    -7.000    -0.021
   H+                    1.045e-007  1.000e-007    -6.981    -7.000    -0.019
   H2O                   5.551e+001  1.000e+000     1.744    -0.000     0.000
Ca              6.000e-004
   Ca+2                  6.000e-004  4.985e-004    -3.222    -3.302    -0.081
   CaOH+                 8.661e-010  8.272e-010    -9.062    -9.082    -0.020
Cl              1.200e-003
   Cl-                   1.200e-003  1.144e-003    -2.921    -2.941    -0.021
H(0)            0.000e+000
   H2                    0.000e+000  0.000e+000   -42.150   -42.150     0.000
O(0)            1.663e-008
   O2                    8.314e-009  8.317e-009    -8.080    -8.080     0.000

------------------------------Saturation indices-------------------------------

	Phase               SI log IAP  log KT

	H2(g)           -39.00  -42.15   -3.15  H2
	O2(g)            -5.19   -8.08   -2.89  O2
	Portlandite     -12.10   10.70   22.80  Ca(OH)2

-------------------------------------------
Beginning of initial solution calculations.
-------------------------------------------

Initial solution 0.	WELL in layer 1, row 1, column 1

-----------------------------Solution composition------------------------------

	Elements           Molality       Moles

	Ca               6.000e-004  6.000e-004
	Cl               1.200e-003  1.200e-003

----------------------------Description of solution----------------------------

                                       pH  =   7.000    
                                       pe  =  12.500    
                        Activity of water  =   1.000
                           Ionic strength  =  1.800e-003
                       Mass of water (kg)  =  1.000e+000
                 Total alkalinity (eq/kg)  =  1.314e-009
                    Total carbon (mol/kg)  =  0.000e+000
                       Total CO2 (mol/kg)  =  0.000e+000
                      Temperature (deg C)  =  25.000
                  Electrical balance (eq)  = -1.314e-009
 Percent error, 100*(Cat-|An|)/(Cat+|An|)  =  -0.00
                               Iterations  =   4
                                  Total H  = 1.110124e+002
                                  Total O  = 5.550622e+001

----------------------------Distribution of species----------------------------

                                                   Log       Log         Log 
   Species                 Molality    Activity  Molality  Activity     Gamma

   OH-                   1.050e-007  1.001e-007    -6.979    -7.000    -0.021
   H+                    1.045e-007  1.000e-007    -6.981    -7.000    -0.019
   H2O                   5.551e+001  1.000e+000     1.744    -0.000     0.000
Ca              6.000e-004
   Ca+2                  6.000e-004  4.985e-004    -3.222    -3.302    -0.081
   CaOH+                 8.661e-010  8.272e-010    -9.062    -9.082    -0.020
Cl              1.200e-003
   Cl-                   1.200e-003  1.144e-003    -2.921    -2.941    -0.021
H(0)            0.000e+000
   H2                    0.000e+000  0.000e+000   -42.150   -42.150     0.000
O(0)            1.663e-008
   O2                    8.314e-009  8.317e-009    -8.080    -8.080     0.000

------------------------------Saturation indices-------------------------------

	Phase               SI log IAP  log KT

	H2(g)           -39.00  -42.15   -3.15  H2
	O2(g)            -5.19   -8.08   -2.89  O2
	Portlandite     -12.10   10.70   22.80  Ca(OH)2

-------------------------------------------
Beginning of initial solution calculations.
-------------------------------------------

Initial solution 0.	WELL in layer 1, row 1, column 1

-----------------------------Solution composition------------------------------

	Elements           Molality       Moles

	Ca               6.000e-004  6.000e-004
	Cl               1.200e-003  1.200e-003

----------------------------Description of solution----------------------------

                                       pH  =   7.000    
                                       pe  =  12.500    
                        Activity of water  =   1.000
                           Ionic strength  =  1.800e-003
                       Mass of water (kg)  =  1.000e+000
                 Total alkalinity (eq/kg)  =  1.314e-009
                    Total carbon (mol/kg)  =  0.000e+000
                       Total CO2 (mol/kg)  =  0.000e+000
                      Temperature (deg C)  =  25.000
                  Electrical balance (eq)  = -1.314e-009
 Percent error, 100*(Cat-|An|)/(Cat+|An|)  =  -0.00
                               Iterations  =   4
                                  Total H  = 1.110124e+002
                                  Total O  = 5.550622e+001

----------------------------Distribution of species----------------------------

                                                   Log       Log         Log 
   Species                 Molality    Activity  Molality  Activity     Gamma

   OH-                   1.050e-007  1.001e-007    -6.979    -7.000    -0.021
   H+                    1.045e-007  1.000e-007    -6.981    -7.000    -0.019
   H2O                   5.551e+001  1.000e+000     1.744    -0.000     0.000
Ca              6.000e-004
   Ca+2                  6.000e-004  4.985e-004    -3.222    -3.302    -0.081
   CaOH+                 8.661e-010  8.272e-010    -9.062    -9.082    -0.020
Cl              1.200e-003
   Cl-                   1.200e-003  1.144e-003    -2.921    -2.941    -0.021
H(0)            0.000e+000
   H2                    0.000e+000  0.000e+000   -42.150   -42.150     0.000
O(0)            1.663e-008
   O2                    8.314e-009  8.317e-009    -8.080    -8.080     0.000

------------------------------Saturation indices-------------------------------

	Phase               SI log IAP  log KT

	H2(g)           -39.00  -42.15   -3.15  H2
	O2(g)            -5.19   -8.08   -2.89  O2
	Portlandite     -12.10   10.70   22.80  Ca(OH)2

-------------------------------------------
Beginning of initial solution calculations.
-------------------------------------------

Initial solution 0.	WELL in layer 1, row 1, column 1

-----------------------------Solution composition------------------------------

	Elements           Molality       Moles

	Ca               6.000e-004  6.000e-004
	Cl               1.200e-003  1.200e-003

----------------------------Description of solution----------------------------

                                       pH  =   7.000    
                                       pe  =  12.500    
                        Activity of water  =   1.000
                           Ionic strength  =  1.800e-003
                       Mass of water (kg)  =  1.000e+000
                 Total alkalinity (eq/kg)  =  1.314e-009
                    Total carbon (mol/kg)  =  0.000e+000
                       Total CO2 (mol/kg)  =  0.000e+000
                      Temperature (deg C)  =  25.000
                  Electrical balance (eq)  = -1.314e-009
 Percent error, 100*(Cat-|An|)/(Cat+|An|)  =  -0.00
                               Iterations  =   4
                                  Total H  = 1.110124e+002
                                  Total O  = 5.550622e+001

----------------------------Distribution of species----------------------------

                                                   Log       Log         Log 
   Species                 Molality    Activity  Molality  Activity     Gamma

   OH-                   1.050e-007  1.001e-007    -6.979    -7.000    -0.021
   H+                    1.045e-007  1.000e-007    -6.981    -7.000    -0.019
   H2O                   5.551e+001  1.000e+000     1.744    -0.000     0.000
Ca              6.000e-004
   Ca+2                  6.000e-004  4.985e-004    -3.222    -3.302    -0.081
   CaOH+                 8.661e-010  8.272e-010    -9.062    -9.082    -0.020
Cl              1.200e-003
   Cl-                   1.200e-003  1.144e-003    -2.921    -2.941    -0.021
H(0)            0.000e+000
   H2                    0.000e+000  0.000e+000   -42.150   -42.150     0.000
O(0)            1.663e-008
   O2                    8.314e-009  8.317e-009    -8.080    -8.080     0.000

------------------------------Saturation indices-------------------------------

	Phase               SI log IAP  log KT

	H2(g)           -39.00  -42.15   -3.15  H2
	O2(g)            -5.19   -8.08   -2.89  O2
	Portlandite     -12.10   10.70   22.80  Ca(OH)2

-------------------------------------------
Beginning of initial solution calculations.
-------------------------------------------

Initial solution 0.	WELL in layer 1, row 1, column 1

-----------------------------Solution composition------------------------------

	Elements           Molality       Moles

	Ca               6.000e-004  6.000e-004
	Cl               1.200e-003  1.200e-003

----------------------------Description of solution----------------------------

                                       pH  =   7.000    
                                       pe  =  12.500    
                        Activity of water  =   1.000
                           Ionic strength  =  1.800e-003
                       Mass of water (kg)  =  1.000e+000
                 Total alkalinity (eq/kg)  =  1.314e-009
                    Total carbon (mol/kg)  =  0.000e+000
                       Total CO2 (mol/kg)  =  0.000e+000
                      Temperature (deg C)  =  25.000
                  Electrical balance (eq)  = -1.314e-009
 Percent error, 100*(Cat-|An|)/(Cat+|An|)  =  -0.00
                               Iterations  =   4
                                  Total H  = 1.110124e+002
                                  Total O  = 5.550622e+001

----------------------------Distribution of species----------------------------

                                                   Log       Log         Log 
   Species                 Molality    Activity  Molality  Activity     Gamma

   OH-                   1.050e-007  1.001e-007    -6.979    -7.000    -0.021
   H+                    1.045e-007  1.000e-007    -6.981    -7.000    -0.019
   H2O                   5.551e+001  1.000e+000     1.744    -0.000     0.000
Ca              6.000e-004
   Ca+2                  6.000e-004  4.985e-004    -3.222    -3.302    -0.081
   CaOH+                 8.661e-010  8.272e-010    -9.062    -9.082    -0.020
Cl              1.200e-003
   Cl-                   1.200e-003  1.144e-003    -2.921    -2.941    -0.021
H(0)            0.000e+000
   H2                    0.000e+000  0.000e+000   -42.150   -42.150     0.000
O(0)            1.663e-008
   O2                    8.314e-009  8.317e-009    -8.080    -8.080     0.000

------------------------------Saturation indices-------------------------------

	Phase               SI log IAP  log KT

	H2(g)           -39.00  -42.15   -3.15  H2
	O2(g)            -5.19   -8.08   -2.89  O2
	Portlandite     -12.10   10.70   22.80  Ca(OH)2

-------------------------------------------
Beginning of initial solution calculations.
-------------------------------------------

Initial solution 0.	WELL in layer 1, row 1, column 1

-----------------------------Solution composition------------------------------

	Elements           Molality       Moles

	Ca               6.000e-004  6.000e-004
	Cl               1.200e-003  1.200e-003

----------------------------Description of solution----------------------------

                                       pH  =   7.000    
                                       pe  =  12.500    
                        Activity of water  =   1.000
                           Ionic strength  =  1.800e-003
                       Mass of water (kg)  =  1.000e+000
                 Total alkalinity (eq/kg)  =  1.314e-009
                    Total carbon (mol/kg)  =  0.000e+000
                       Total CO2 (mol/kg)  =  0.000e+000
                      Temperature (deg C)  =  25.000
                  Electrical balance (eq)  = -1.314e-009
 Percent error, 100*(Cat-|An|)/(Cat+|An|)  =  -0.00
                               Iterations  =   4
                                  Total H  = 1.110124e+002
                                  Total O  = 5.550622e+001

----------------------------Distribution of species----------------------------

                                                   Log       Log         Log 
   Species                 Molality    Activity  Molality  Activity     Gamma

   OH-                   1.050e-007  1.001e-007    -6.979    -7.000    -0.021
   H+                    1.045e-007  1.000e-007    -6.981    -7.000    -0.019
   H2O                   5.551e+001  1.000e+000     1.744    -0.000     0.000
Ca              6.000e-004
   Ca+2                  6.000e-004  4.985e-004    -3.222    -3.302    -0.081
   CaOH+                 8.661e-010  8.272e-010    -9.062    -9.082    -0.020
Cl              1.200e-003
   Cl-                   1.200e-003  1.144e-003    -2.921    -2.941    -0.021
H(0)            0.000e+000
   H2                    0.000e+000  0.000e+000   -42.150   -42.150     0.000
O(0)            1.663e-008
   O2                    8.314e-009  8.317e-009    -8.080    -8.080     0.000

------------------------------Saturation indices-------------------------------

	Phase               SI log IAP  log KT

	H2(g)           -39.00  -42.15   -3.15  H2
	O2(g)            -5.19   -8.08   -2.89  O2
	Portlandite     -12.10   10.70   22.80  Ca(OH)2

-------------------------------------------
Beginning of initial solution calculations.
-------------------------------------------

Initial solution 0.	WELL in layer 1, row 1, column 1

-----------------------------Solution composition------------------------------

	Elements           Molality       Moles

	Ca               6.000e-004  6.000e-004
	Cl               1.200e-003  1.200e-003

----------------------------Description of solution----------------------------

                                       pH  =   7.000    
                                       pe  =  12.500    
                        Activity of water  =   1.000
                           Ionic strength  =  1.800e-003
                       Mass of water (kg)  =  1.000e+000
                 Total alkalinity (eq/kg)  =  1.314e-009
                    Total carbon (mol/kg)  =  0.000e+000
                       Total CO2 (mol/kg)  =  0.000e+000
                      Temperature (deg C)  =  25.000
                  Electrical balance (eq)  = -1.314e-009
 Percent error, 100*(Cat-|An|)/(Cat+|An|)  =  -0.00
                               Iterations  =   4
                                  Total H  = 1.110124e+002
                                  Total O  = 5.550622e+001

----------------------------Distribution of species----------------------------

                                                   Log       Log         Log 
   Species                 Molality    Activity  Molality  Activity     Gamma

   OH-                   1.050e-007  1.001e-007    -6.979    -7.000    -0.021
   H+                    1.045e-007  1.000e-007    -6.981    -7.000    -0.019
   H2O                   5.551e+001  1.000e+000     1.744    -0.000     0.000
Ca              6.000e-004
   Ca+2                  6.000e-004  4.985e-004    -3.222    -3.302    -0.081
   CaOH+                 8.661e-010  8.272e-010    -9.062    -9.082    -0.020
Cl              1.200e-003
   Cl-                   1.200e-003  1.144e-003    -2.921    -2.941    -0.021
H(0)            0.000e+000
   H2                    0.000e+000  0.000e+000   -42.150   -42.150     0.000
O(0)            1.663e-008
   O2                    8.314e-009  8.317e-009    -8.080    -8.080     0.000

------------------------------Saturation indices-------------------------------

	Phase               SI log IAP  log KT

	H2(g)           -39.00  -42.15   -3.15  H2
	O2(g)            -5.19   -8.08   -2.89  O2
	Portlandite     -12.10   10.70   22.80  Ca(OH)2

-------------------------------------------
Beginning of initial solution calculations.
-------------------------------------------

Initial solution 0.	WELL in layer 1, row 1, column 1

-----------------------------Solution composition------------------------------

	Elements           Molality       Moles

	Ca               6.000e-004  6.000e-004
	Cl               1.200e-003  1.200e-003

----------------------------Description of solution----------------------------

                                       pH  =   7.000    
                                       pe  =  12.500    
                        Activity of water  =   1.000
                           Ionic strength  =  1.800e-003
                       Mass of water (kg)  =  1.000e+000
                 Total alkalinity (eq/kg)  =  1.314e-009
                    Total carbon (mol/kg)  =  0.000e+000
                       Total CO2 (mol/kg)  =  0.000e+000
                      Temperature (deg C)  =  25.000
                  Electrical balance (eq)  = -1.314e-009
 Percent error, 100*(Cat-|An|)/(Cat+|An|)  =  -0.00
                               Iterations  =   4
                                  Total H  = 1.110124e+002
                                  Total O  = 5.550622e+001

----------------------------Distribution of species----------------------------

                                                   Log       Log         Log 
   Species                 Molality    Activity  Molality  Activity     Gamma

   OH-                   1.050e-007  1.001e-007    -6.979    -7.000    -0.021
   H+                    1.045e-007  1.000e-007    -6.981    -7.000    -0.019
   H2O                   5.551e+001  1.000e+000     1.744    -0.000     0.000
Ca              6.000e-004
   Ca+2                  6.000e-004  4.985e-004    -3.222    -3.302    -0.081
   CaOH+                 8.661e-010  8.272e-010    -9.062    -9.082    -0.020
Cl              1.200e-003
   Cl-                   1.200e-003  1.144e-003    -2.921    -2.941    -0.021
H(0)            0.000e+000
   H2                    0.000e+000  0.000e+000   -42.150   -42.150     0.000
O(0)            1.663e-008
   O2                    8.314e-009  8.317e-009    -8.080    -8.080     0.000

------------------------------Saturation indices-------------------------------

	Phase               SI log IAP  log KT

	H2(g)           -39.00  -42.15   -3.15  H2
	O2(g)            -5.19   -8.08   -2.89  O2
	Portlandite     -12.10   10.70   22.80  Ca(OH)2

-------------------------------------------
Beginning of initial solution calculations.
-------------------------------------------

Initial solution 0.	WELL in layer 1, row 1, column 1

-----------------------------Solution composition------------------------------

	Elements           Molality       Moles

	Ca               6.000e-004  6.000e-004
	Cl               1.200e-003  1.200e-003

----------------------------Description of solution----------------------------

                                       pH  =   7.000    
                                       pe  =  12.500    
                        Activity of water  =   1.000
                           Ionic strength  =  1.800e-003
                       Mass of water (kg)  =  1.000e+000
                 Total alkalinity (eq/kg)  =  1.314e-009
                    Total carbon (mol/kg)  =  0.000e+000
                       Total CO2 (mol/kg)  =  0.000e+000
                      Temperature (deg C)  =  25.000
                  Electrical balance (eq)  = -1.314e-009
 Percent error, 100*(Cat-|An|)/(Cat+|An|)  =  -0.00
                               Iterations  =   4
                                  Total H  = 1.110124e+002
                                  Total O  = 5.550622e+001

----------------------------Distribution of species----------------------------

                                                   Log       Log         Log 
   Species                 Molality    Activity  Molality  Activity     Gamma

   OH-                   1.050e-007  1.001e-007    -6.979    -7.000    -0.021
   H+                    1.045e-007  1.000e-007    -6.981    -7.000    -0.019
   H2O                   5.551e+001  1.000e+000     1.744    -0.000     0.000
Ca              6.000e-004
   Ca+2                  6.000e-004  4.985e-004    -3.222    -3.302    -0.081
   CaOH+                 8.661e-010  8.272e-010    -9.062    -9.082    -0.020
Cl              1.200e-003
   Cl-                   1.200e-003  1.144e-003    -2.921    -2.941    -0.021
H(0)            0.000e+000
   H2                    0.000e+000  0.000e+000   -42.150   -42.150     0.000
O(0)            1.663e-008
   O2                    8.314e-009  8.317e-009    -8.080    -8.080     0.000

------------------------------Saturation indices-------------------------------

	Phase               SI log IAP  log KT

	H2(g)           -39.00  -42.15   -3.15  H2
	O2(g)            -5.19   -8.08   -2.89  O2
	Portlandite     -12.10   10.70   22.80  Ca(OH)2

-------------------------------------------
Beginning of initial solution calculations.
-------------------------------------------

Initial solution 0.	WELL in layer 1, row 1, column 1

-----------------------------Solution composition------------------------------

	Elements           Molality       Moles

	Ca               6.000e-004  6.000e-004
	Cl               1.200e-003  1.200e-003

----------------------------Description of solution----------------------------

                                       pH  =   7.000    
                                       pe  =  12.500    
                        Activity of water  =   1.000
                           Ionic strength  =  1.800e-003
                       Mass of water (kg)  =  1.000e+000
                 Total alkalinity (eq/kg)  =  1.314e-009
                    Total carbon (mol/kg)  =  0.000e+000
                       Total CO2 (mol/kg)  =  0.000e+000
                      Temperature (deg C)  =  25.000
                  Electrical balance (eq)  = -1.314e-009
 Percent error, 100*(Cat-|An|)/(Cat+|An|)  =  -0.00
                               Iterations  =   4
                                  Total H  = 1.110124e+002
                                  Total O  = 5.550622e+001

----------------------------Distribution of species----------------------------

                                                   Log       Log         Log 
   Species                 Molality    Activity  Molality  Activity     Gamma

   OH-                   1.050e-007  1.001e-007    -6.979    -7.000    -0.021
   H+                    1.045e-007  1.000e-007    -6.981    -7.000    -0.019
   H2O                   5.551e+001  1.000e+000     1.744    -0.000     0.000
Ca              6.000e-004
   Ca+2                  6.000e-004  4.985e-004    -3.222    -3.302    -0.081
   CaOH+                 8.661e-010  8.272e-010    -9.062    -9.082    -0.020
Cl              1.200e-003
   Cl-                   1.200e-003  1.144e-003    -2.921    -2.941    -0.021
H(0)            0.000e+000
   H2                    0.000e+000  0.000e+000   -42.150   -42.150     0.000
O(0)            1.663e-008
   O2                    8.314e-009  8.317e-009    -8.080    -8.080     0.000

------------------------------Saturation indices-------------------------------

	Phase               SI log IAP  log KT

	H2(g)           -39.00  -42.15   -3.15  H2
	O2(g)            -5.19   -8.08   -2.89  O2
	Portlandite     -12.10   10.70   22.80  Ca(OH)2

-------------------------------------------
Beginning of initial solution calculations.
-------------------------------------------

Initial solution 0.	WELL in layer 1, row 1, column 1

-----------------------------Solution composition------------------------------

	Elements           Molality       Moles

	Ca               6.000e-004  6.000e-004
	Cl               1.200e-003  1.200e-003

----------------------------Description of solution----------------------------

                                       pH  =   7.000    
                                       pe  =  12.500    
                        Activity of water  =   1.000
                           Ionic strength  =  1.800e-003
                       Mass of water (kg)  =  1.000e+000
                 Total alkalinity (eq/kg)  =  1.314e-009
                    Total carbon (mol/kg)  =  0.000e+000
                       Total CO2 (mol/kg)  =  0.000e+000
                      Temperature (deg C)  =  25.000
                  Electrical balance (eq)  = -1.314e-009
 Percent error, 100*(Cat-|An|)/(Cat+|An|)  =  -0.00
                               Iterations  =   4
                                  Total H  = 1.110124e+002
                                  Total O  = 5.550622e+001

----------------------------Distribution of species----------------------------

                                                   Log       Log         Log 
   Species                 Molality    Activity  Molality  Activity     Gamma

   OH-                   1.050e-007  1.001e-007    -6.979    -7.000    -0.021
   H+                    1.045e-007  1.000e-007    -6.981    -7.000    -0.019
   H2O                   5.551e+001  1.000e+000     1.744    -0.000     0.000
Ca              6.000e-004
   Ca+2                  6.000e-004  4.985e-004    -3.222    -3.302    -0.081
   CaOH+                 8.661e-010  8.272e-010    -9.062    -9.082    -0.020
Cl              1.200e-003
   Cl-                   1.200e-003  1.144e-003    -2.921    -2.941    -0.021
H(0)            0.000e+000
   H2                    0.000e+000  0.000e+000   -42.150   -42.150     0.000
O(0)            1.663e-008
   O2                    8.314e-009  8.317e-009    -8.080    -8.080     0.000

------------------------------Saturation indices-------------------------------

	Phase               SI log IAP  log KT

	H2(g)           -39.00  -42.15   -3.15  H2
	O2(g)            -5.19   -8.08   -2.89  O2
	Portlandite     -12.10   10.70   22.80  Ca(OH)2

-------------------------------------------
Beginning of initial solution calculations.
-------------------------------------------

Initial solution 0.	WELL in layer 1, row 1, column 1

-----------------------------Solution composition------------------------------

	Elements           Molality       Moles

	Ca               6.000e-004  6.000e-004
	Cl               1.200e-003  1.200e-003

----------------------------Description of solution----------------------------

                                       pH  =   7.000    
                                       pe  =  12.500    
                        Activity of water  =   1.000
                           Ionic strength  =  1.800e-003
                       Mass of water (kg)  =  1.000e+000
                 Total alkalinity (eq/kg)  =  1.314e-009
                    Total carbon (mol/kg)  =  0.000e+000
                       Total CO2 (mol/kg)  =  0.000e+000
                      Temperature (deg C)  =  25.000
                  Electrical balance (eq)  = -1.314e-009
 Percent error, 100*(Cat-|An|)/(Cat+|An|)  =  -0.00
                               Iterations  =   4
                                  Total H  = 1.110124e+002
                                  Total O  = 5.550622e+001

----------------------------Distribution of species----------------------------

                                                   Log       Log         Log 
   Species                 Molality    Activity  Molality  Activity     Gamma

   OH-                   1.050e-007  1.001e-007    -6.979    -7.000    -0.021
   H+                    1.045e-007  1.000e-007    -6.981    -7.000    -0.019
   H2O                   5.551e+001  1.000e+000     1.744    -0.000     0.000
Ca              6.000e-004
   Ca+2                  6.000e-004  4.985e-004    -3.222    -3.302    -0.081
   CaOH+                 8.661e-010  8.272e-010    -9.062    -9.082    -0.020
Cl              1.200e-003
   Cl-                   1.200e-003  1.144e-003    -2.921    -2.941    -0.021
H(0)            0.000e+000
   H2                    0.000e+000  0.000e+000   -42.150   -42.150     0.000
O(0)            1.663e-008
   O2                    8.314e-009  8.317e-009    -8.080    -8.080     0.000

------------------------------Saturation indices-------------------------------

	Phase               SI log IAP  log KT

	H2(g)           -39.00  -42.15   -3.15  H2
	O2(g)            -5.19   -8.08   -2.89  O2
	Portlandite     -12.10   10.70   22.80  Ca(OH)2

-------------------------------------------
Beginning of initial solution calculations.
-------------------------------------------

Initial solution 0.	WELL in layer 1, row 1, column 1

-----------------------------Solution composition------------------------------

	Elements           Molality       Moles

	Ca               6.000e-004  6.000e-004
	Cl               1.200e-003  1.200e-003

----------------------------Description of solution----------------------------

                                       pH  =   7.000    
                                       pe  =  12.500    
                        Activity of water  =   1.000
                           Ionic strength  =  1.800e-003
                       Mass of water (kg)  =  1.000e+000
                 Total alkalinity (eq/kg)  =  1.314e-009
                    Total carbon (mol/kg)  =  0.000e+000
                       Total CO2 (mol/kg)  =  0.000e+000
                      Temperature (deg C)  =  25.000
                  Electrical balance (eq)  = -1.314e-009
 Percent error, 100*(Cat-|An|)/(Cat+|An|)  =  -0.00
                               Iterations  =   4
                                  Total H  = 1.110124e+002
                                  Total O  = 5.550622e+001

----------------------------Distribution of species----------------------------

                                                   Log       Log         Log 
   Species                 Molality    Activity  Molality  Activity     Gamma

   OH-                   1.050e-007  1.001e-007    -6.979    -7.000    -0.021
   H+                    1.045e-007  1.000e-007    -6.981    -7.000    -0.019
   H2O                   5.551e+001  1.000e+000     1.744    -0.000     0.000
Ca              6.000e-004
   Ca+2                  6.000e-004  4.985e-004    -3.222    -3.302    -0.081
   CaOH+                 8.661e-010  8.272e-010    -9.062    -9.082    -0.020
Cl              1.200e-003
   Cl-                   1.200e-003  1.144e-003    -2.921    -2.941    -0.021
H(0)            0.000e+000
   H2                    0.000e+000  0.000e+000   -42.150   -42.150     0.000
O(0)            1.663e-008
   O2                    8.314e-009  8.317e-009    -8.080    -8.080     0.000

------------------------------Saturation indices-------------------------------

	Phase               SI log IAP  log KT

	H2(g)           -39.00  -42.15   -3.15  H2
	O2(g)            -5.19   -8.08   -2.89  O2
	Portlandite     -12.10   10.70   22.80  Ca(OH)2

-------------------------------------------
Beginning of initial solution calculations.
-------------------------------------------

Initial solution 0.	WELL in layer 1, row 1, column 1

-----------------------------Solution composition------------------------------

	Elements           Molality       Moles

	Ca               6.000e-004  6.000e-004
	Cl               1.200e-003  1.200e-003

----------------------------Description of solution----------------------------

                                       pH  =   7.000    
                                       pe  =  12.500    
                        Activity of water  =   1.000
                           Ionic strength  =  1.800e-003
                       Mass of water (kg)  =  1.000e+000
                 Total alkalinity (eq/kg)  =  1.314e-009
                    Total carbon (mol/kg)  =  0.000e+000
                       Total CO2 (mol/kg)  =  0.000e+000
                      Temperature (deg C)  =  25.000
                  Electrical balance (eq)  = -1.314e-009
 Percent error, 100*(Cat-|An|)/(Cat+|An|)  =  -0.00
                               Iterations  =   4
                                  Total H  = 1.110124e+002
                                  Total O  = 5.550622e+001

----------------------------Distribution of species----------------------------

                                                   Log       Log         Log 
   Species                 Molality    Activity  Molality  Activity     Gamma

   OH-                   1.050e-007  1.001e-007    -6.979    -7.000    -0.021
   H+                    1.045e-007  1.000e-007    -6.981    -7.000    -0.019
   H2O                   5.551e+001  1.000e+000     1.744    -0.000     0.000
Ca              6.000e-004
   Ca+2                  6.000e-004  4.985e-004    -3.222    -3.302    -0.081
   CaOH+                 8.661e-010  8.272e-010    -9.062    -9.082    -0.020
Cl              1.200e-003
   Cl-                   1.200e-003  1.144e-003    -2.921    -2.941    -0.021
H(0)            0.000e+000
   H2                    0.000e+000  0.000e+000   -42.150   -42.150     0.000
O(0)            1.663e-008
   O2                    8.314e-009  8.317e-009    -8.080    -8.080     0.000

------------------------------Saturation indices-------------------------------

	Phase               SI log IAP  log KT

	H2(g)           -39.00  -42.15   -3.15  H2
	O2(g)            -5.19   -8.08   -2.89  O2
	Portlandite     -12.10   10.70   22.80  Ca(OH)2

-------------------------------------------
Beginning of initial solution calculations.
-------------------------------------------

Initial solution 0.	WELL in layer 1, row 1, column 1

-----------------------------Solution composition------------------------------

	Elements           Molality       Moles

	Ca               6.000e-004  6.000e-004
	Cl               1.200e-003  1.200e-003

----------------------------Description of solution----------------------------

                                       pH  =   7.000    
                                       pe  =  12.500    
                        Activity of water  =   1.000
                           Ionic strength  =  1.800e-003
                       Mass of water (kg)  =  1.000e+000
                 Total alkalinity (eq/kg)  =  1.314e-009
                    Total carbon (mol/kg)  =  0.000e+000
                       Total CO2 (mol/kg)  =  0.000e+000
                      Temperature (deg C)  =  25.000
                  Electrical balance (eq)  = -1.314e-009
 Percent error, 100*(Cat-|An|)/(Cat+|An|)  =  -0.00
                               Iterations  =   4
                                  Total H  = 1.110124e+002
                                  Total O  = 5.550622e+001

----------------------------Distribution of species----------------------------

                                                   Log       Log         Log 
   Species                 Molality    Activity  Molality  Activity     Gamma

   OH-                   1.050e-007  1.001e-007    -6.979    -7.000    -0.021
   H+                    1.045e-007  1.000e-007    -6.981    -7.000    -0.019
   H2O                   5.551e+001  1.000e+000     1.744    -0.000     0.000
Ca              6.000e-004
   Ca+2                  6.000e-004  4.985e-004    -3.222    -3.302    -0.081
   CaOH+                 8.661e-010  8.272e-010    -9.062    -9.082    -0.020
Cl              1.200e-003
   Cl-                   1.200e-003  1.144e-003    -2.921    -2.941    -0.021
H(0)            0.000e+000
   H2                    0.000e+000  0.000e+000   -42.150   -42.150     0.000
O(0)            1.663e-008
   O2                    8.314e-009  8.317e-009    -8.080    -8.080     0.000

------------------------------Saturation indices-------------------------------

	Phase               SI log IAP  log KT

	H2(g)           -39.00  -42.15   -3.15  H2
	O2(g)            -5.19   -8.08   -2.89  O2
	Portlandite     -12.10   10.70   22.80  Ca(OH)2

-------------------------------------------
Beginning of initial solution calculations.
-------------------------------------------

Initial solution 0.	WELL in layer 1, row 1, column 1

-----------------------------Solution composition------------------------------

	Elements           Molality       Moles

	Ca               6.000e-004  6.000e-004
	Cl               1.200e-003  1.200e-003

----------------------------Description of solution----------------------------

                                       pH  =   7.000    
                                       pe  =  12.500    
                        Activity of water  =   1.000
                           Ionic strength  =  1.800e-003
                       Mass of water (kg)  =  1.000e+000
                 Total alkalinity (eq/kg)  =  1.314e-009
                    Total carbon (mol/kg)  =  0.000e+000
                       Total CO2 (mol/kg)  =  0.000e+000
                      Temperature (deg C)  =  25.000
                  Electrical balance (eq)  = -1.314e-009
 Percent error, 100*(Cat-|An|)/(Cat+|An|)  =  -0.00
                               Iterations  =   4
                                  Total H  = 1.110124e+002
                                  Total O  = 5.550622e+001

----------------------------Distribution of species----------------------------

                                                   Log       Log         Log 
   Species                 Molality    Activity  Molality  Activity     Gamma

   OH-                   1.050e-007  1.001e-007    -6.979    -7.000    -0.021
   H+                    1.045e-007  1.000e-007    -6.981    -7.000    -0.019
   H2O                   5.551e+001  1.000e+000     1.744    -0.000     0.000
Ca              6.000e-004
   Ca+2                  6.000e-004  4.985e-004    -3.222    -3.302    -0.081
   CaOH+                 8.661e-010  8.272e-010    -9.062    -9.082    -0.020
Cl              1.200e-003
   Cl-                   1.200e-003  1.144e-003    -2.921    -2.941    -0.021
H(0)            0.000e+000
   H2                    0.000e+000  0.000e+000   -42.150   -42.150     0.000
O(0)            1.663e-008
   O2                    8.314e-009  8.317e-009    -8.080    -8.080     0.000

------------------------------Saturation indices-------------------------------

	Phase               SI log IAP  log KT

	H2(g)           -39.00  -42.15   -3.15  H2
	O2(g)            -5.19   -8.08   -2.89  O2
	Portlandite     -12.10   10.70   22.80  Ca(OH)2

-------------------------------------------
Beginning of initial solution calculations.
-------------------------------------------

Initial solution 0.	WELL in layer 1, row 1, column 1

-----------------------------Solution composition------------------------------

	Elements           Molality       Moles

	Ca               6.000e-004  6.000e-004
	Cl               1.200e-003  1.200e-003

----------------------------Description of solution----------------------------

                                       pH  =   7.000    
                                       pe  =  12.500    
                        Activity of water  =   1.000
                           Ionic strength  =  1.800e-003
                       Mass of water (kg)  =  1.000e+000
                 Total alkalinity (eq/kg)  =  1.314e-009
                    Total carbon (mol/kg)  =  0.000e+000
                       Total CO2 (mol/kg)  =  0.000e+000
                      Temperature (deg C)  =  25.000
                  Electrical balance (eq)  = -1.314e-009
 Percent error, 100*(Cat-|An|)/(Cat+|An|)  =  -0.00
                               Iterations  =   4
                                  Total H  = 1.110124e+002
                                  Total O  = 5.550622e+001

----------------------------Distribution of species----------------------------

                                                   Log       Log         Log 
   Species                 Molality    Activity  Molality  Activity     Gamma

   OH-                   1.050e-007  1.001e-007    -6.979    -7.000    -0.021
   H+                    1.045e-007  1.000e-007    -6.981    -7.000    -0.019
   H2O                   5.551e+001  1.000e+000     1.744    -0.000     0.000
Ca              6.000e-004
   Ca+2                  6.000e-004  4.985e-004    -3.222    -3.302    -0.081
   CaOH+                 8.661e-010  8.272e-010    -9.062    -9.082    -0.020
Cl              1.200e-003
   Cl-                   1.200e-003  1.144e-003    -2.921    -2.941    -0.021
H(0)            0.000e+000
   H2                    0.000e+000  0.000e+000   -42.150   -42.150     0.000
O(0)            1.663e-008
   O2                    8.314e-009  8.317e-009    -8.080    -8.080     0.000

------------------------------Saturation indices-------------------------------

	Phase               SI log IAP  log KT

	H2(g)           -39.00  -42.15   -3.15  H2
	O2(g)            -5.19   -8.08   -2.89  O2
	Portlandite     -12.10   10.70   22.80  Ca(OH)2

-------------------------------------------
Beginning of initial solution calculations.
-------------------------------------------

Initial solution 0.	WELL in layer 1, row 1, column 1

-----------------------------Solution composition------------------------------

	Elements           Molality       Moles

	Ca               6.000e-004  6.000e-004
	Cl               1.200e-003  1.200e-003

----------------------------Description of solution----------------------------

                                       pH  =   7.000    
                                       pe  =  12.500    
                        Activity of water  =   1.000
                           Ionic strength  =  1.800e-003
                       Mass of water (kg)  =  1.000e+000
                 Total alkalinity (eq/kg)  =  1.314e-009
                    Total carbon (mol/kg)  =  0.000e+000
                       Total CO2 (mol/kg)  =  0.000e+000
                      Temperature (deg C)  =  25.000
                  Electrical balance (eq)  = -1.314e-009
 Percent error, 100*(Cat-|An|)/(Cat+|An|)  =  -0.00
                               Iterations  =   4
                                  Total H  = 1.110124e+002
                                  Total O  = 5.550622e+001

----------------------------Distribution of species----------------------------

                                                   Log       Log         Log 
   Species                 Molality    Activity  Molality  Activity     Gamma

   OH-                   1.050e-007  1.001e-007    -6.979    -7.000    -0.021
   H+                    1.045e-007  1.000e-007    -6.981    -7.000    -0.019
   H2O                   5.551e+001  1.000e+000     1.744    -0.000     0.000
Ca              6.000e-004
   Ca+2                  6.000e-004  4.985e-004    -3.222    -3.302    -0.081
   CaOH+                 8.661e-010  8.272e-010    -9.062    -9.082    -0.020
Cl              1.200e-003
   Cl-                   1.200e-003  1.144e-003    -2.921    -2.941    -0.021
H(0)            0.000e+000
   H2                    0.000e+000  0.000e+000   -42.150   -42.150     0.000
O(0)            1.663e-008
   O2                    8.314e-009  8.317e-009    -8.080    -8.080     0.000

------------------------------Saturation indices-------------------------------

	Phase               SI log IAP  log KT

	H2(g)           -39.00  -42.15   -3.15  H2
	O2(g)            -5.19   -8.08   -2.89  O2
	Portlandite     -12.10   10.70   22.80  Ca(OH)2

-------------------------------------------
Beginning of initial solution calculations.
-------------------------------------------

Initial solution 0.	WELL in layer 1, row 1, column 1

-----------------------------Solution composition------------------------------

	Elements           Molality       Moles

	Ca               6.000e-004  6.000e-004
	Cl               1.200e-003  1.200e-003

----------------------------Description of solution----------------------------

                                       pH  =   7.000    
                                       pe  =  12.500    
                        Activity of water  =   1.000
                           Ionic strength  =  1.800e-003
                       Mass of water (kg)  =  1.000e+000
                 Total alkalinity (eq/kg)  =  1.314e-009
                    Total carbon (mol/kg)  =  0.000e+000
                       Total CO2 (mol/kg)  =  0.000e+000
                      Temperature (deg C)  =  25.000
[...]
	O2(g)            -5.19   -8.08   -2.89  O2
	Portlandite     -12.10   10.70   22.80  Ca(OH)2

-------------------------------------------
Beginning of initial solution calculations.
-------------------------------------------

Initial solution 0.	WELL in layer 1, row 1, column 1

-----------------------------Solution composition------------------------------

	Elements           Molality       Moles

	Ca               6.000e-004  6.000e-004
	Cl               1.200e-003  1.200e-003

----------------------------Description of solution----------------------------

                                       pH  =   7.000    
                                       pe  =  12.500    
                        Activity of water  =   1.000
                           Ionic strength  =  1.800e-003
                       Mass of water (kg)  =  1.000e+000
                 Total alkalinity (eq/kg)  =  1.314e-009
                    Total carbon (mol/kg)  =  0.000e+000
                       Total CO2 (mol/kg)  =  0.000e+000
                      Temperature (deg C)  =  25.000
                  Electrical balance (eq)  = -1.314e-009
 Percent error, 100*(Cat-|An|)/(Cat+|An|)  =  -0.00
                               Iterations  =   4
                                  Total H  = 1.110124e+002
                                  Total O  = 5.550622e+001

----------------------------Distribution of species----------------------------

                                                   Log       Log         Log 
   Species                 Molality    Activity  Molality  Activity     Gamma

   OH-                   1.050e-007  1.001e-007    -6.979    -7.000    -0.021
   H+                    1.045e-007  1.000e-007    -6.981    -7.000    -0.019
   H2O                   5.551e+001  1.000e+000     1.744    -0.000     0.000
Ca              6.000e-004
   Ca+2                  6.000e-004  4.985e-004    -3.222    -3.302    -0.081
   CaOH+                 8.661e-010  8.272e-010    -9.062    -9.082    -0.020
Cl              1.200e-003
   Cl-                   1.200e-003  1.144e-003    -2.921    -2.941    -0.021
H(0)            0.000e+000
   H2                    0.000e+000  0.000e+000   -42.150   -42.150     0.000
O(0)            1.663e-008
   O2                    8.314e-009  8.317e-009    -8.080    -8.080     0.000

------------------------------Saturation indices-------------------------------

	Phase               SI log IAP  log KT

	H2(g)           -39.00  -42.15   -3.15  H2
	O2(g)            -5.19   -8.08   -2.89  O2
	Portlandite     -12.10   10.70   22.80  Ca(OH)2

-------------------------------------------
Beginning of initial solution calculations.
-------------------------------------------

Initial solution 0.	WELL in layer 1, row 1, column 1

-----------------------------Solution composition------------------------------

	Elements           Molality       Moles

	Ca               6.000e-004  6.000e-004
	Cl               1.200e-003  1.200e-003

----------------------------Description of solution----------------------------

                                       pH  =   7.000    
                                       pe  =  12.500    
                        Activity of water  =   1.000
                           Ionic strength  =  1.800e-003
                       Mass of water (kg)  =  1.000e+000
                 Total alkalinity (eq/kg)  =  1.314e-009
                    Total carbon (mol/kg)  =  0.000e+000
                       Total CO2 (mol/kg)  =  0.000e+000
                      Temperature (deg C)  =  25.000
                  Electrical balance (eq)  = -1.314e-009
 Percent error, 100*(Cat-|An|)/(Cat+|An|)  =  -0.00
                               Iterations  =   4
                                  Total H  = 1.110124e+002
                                  Total O  = 5.550622e+001

----------------------------Distribution of species----------------------------

                                                   Log       Log         Log 
   Species                 Molality    Activity  Molality  Activity     Gamma

   OH-                   1.050e-007  1.001e-007    -6.979    -7.000    -0.021
   H+                    1.045e-007  1.000e-007    -6.981    -7.000    -0.019
   H2O                   5.551e+001  1.000e+000     1.744    -0.000     0.000
Ca              6.000e-004
   Ca+2                  6.000e-004  4.985e-004    -3.222    -3.302    -0.081
   CaOH+                 8.661e-010  8.272e-010    -9.062    -9.082    -0.020
Cl              1.200e-003
   Cl-                   1.200e-003  1.144e-003    -2.921    -2.941    -0.021
H(0)            0.000e+000
   H2                    0.000e+000  0.000e+000   -42.150   -42.150     0.000
O(0)            1.663e-008
   O2                    8.314e-009  8.317e-009    -8.080    -8.080     0.000

------------------------------Saturation indices-------------------------------

	Phase               SI log IAP  log KT

	H2(g)           -39.00  -42.15   -3.15  H2
	O2(g)            -5.19   -8.08   -2.89  O2
	Portlandite     -12.10   10.70   22.80  Ca(OH)2

-------------------------------------------
Beginning of initial solution calculations.
-------------------------------------------

Initial solution 0.	WELL in layer 1, row 1, column 1

-----------------------------Solution composition------------------------------

	Elements           Molality       Moles

	Ca               6.000e-004  6.000e-004
	Cl               1.200e-003  1.200e-003

----------------------------Description of solution----------------------------

                                       pH  =   7.000    
                                       pe  =  12.500    
                        Activity of water  =   1.000
                           Ionic strength  =  1.800e-003
                       Mass of water (kg)  =  1.000e+000
                 Total alkalinity (eq/kg)  =  1.314e-009
                    Total carbon (mol/kg)  =  0.000e+000
                       Total CO2 (mol/kg)  =  0.000e+000
                      Temperature (deg C)  =  25.000
                  Electrical balance (eq)  = -1.314e-009
 Percent error, 100*(Cat-|An|)/(Cat+|An|)  =  -0.00
                               Iterations  =   4
                                  Total H  = 1.110124e+002
                                  Total O  = 5.550622e+001

----------------------------Distribution of species----------------------------

                                                   Log       Log         Log 
   Species                 Molality    Activity  Molality  Activity     Gamma

   OH-                   1.050e-007  1.001e-007    -6.979    -7.000    -0.021
   H+                    1.045e-007  1.000e-007    -6.981    -7.000    -0.019
   H2O                   5.551e+001  1.000e+000     1.744    -0.000     0.000
Ca              6.000e-004
   Ca+2                  6.000e-004  4.985e-004    -3.222    -3.302    -0.081
   CaOH+                 8.661e-010  8.272e-010    -9.062    -9.082    -0.020
Cl              1.200e-003
   Cl-                   1.200e-003  1.144e-003    -2.921    -2.941    -0.021
H(0)            0.000e+000
   H2                    0.000e+000  0.000e+000   -42.150   -42.150     0.000
O(0)            1.663e-008
   O2                    8.314e-009  8.317e-009    -8.080    -8.080     0.000

------------------------------Saturation indices-------------------------------

	Phase               SI log IAP  log KT

	H2(g)           -39.00  -42.15   -3.15  H2
	O2(g)            -5.19   -8.08   -2.89  O2
	Portlandite     -12.10   10.70   22.80  Ca(OH)2

-------------------------------------------
Beginning of initial solution calculations.
-------------------------------------------

Initial solution 0.	WELL in layer 1, row 1, column 1

-----------------------------Solution composition------------------------------

	Elements           Molality       Moles

	Ca               6.000e-004  6.000e-004
	Cl               1.200e-003  1.200e-003

----------------------------Description of solution----------------------------

                                       pH  =   7.000    
                                       pe  =  12.500    
                        Activity of water  =   1.000
                           Ionic strength  =  1.800e-003
                       Mass of water (kg)  =  1.000e+000
                 Total alkalinity (eq/kg)  =  1.314e-009
                    Total carbon (mol/kg)  =  0.000e+000
                       Total CO2 (mol/kg)  =  0.000e+000
                      Temperature (deg C)  =  25.000
                  Electrical balance (eq)  = -1.314e-009
 Percent error, 100*(Cat-|An|)/(Cat+|An|)  =  -0.00
                               Iterations  =   4
                                  Total H  = 1.110124e+002
                                  Total O  = 5.550622e+001

----------------------------Distribution of species----------------------------

                                                   Log       Log         Log 
   Species                 Molality    Activity  Molality  Activity     Gamma

   OH-                   1.050e-007  1.001e-007    -6.979    -7.000    -0.021
   H+                    1.045e-007  1.000e-007    -6.981    -7.000    -0.019
   H2O                   5.551e+001  1.000e+000     1.744    -0.000     0.000
Ca              6.000e-004
   Ca+2                  6.000e-004  4.985e-004    -3.222    -3.302    -0.081
   CaOH+                 8.661e-010  8.272e-010    -9.062    -9.082    -0.020
Cl              1.200e-003
   Cl-                   1.200e-003  1.144e-003    -2.921    -2.941    -0.021
H(0)            0.000e+000
   H2                    0.000e+000  0.000e+000   -42.150   -42.150     0.000
O(0)            1.663e-008
   O2                    8.314e-009  8.317e-009    -8.080    -8.080     0.000

------------------------------Saturation indices-------------------------------

	Phase               SI log IAP  log KT

	H2(g)           -39.00  -42.15   -3.15  H2
	O2(g)            -5.19   -8.08   -2.89  O2
	Portlandite     -12.10   10.70   22.80  Ca(OH)2

-------------------------------------------
Beginning of initial solution calculations.
-------------------------------------------

Initial solution 0.	WELL in layer 1, row 1, column 1

-----------------------------Solution composition------------------------------

	Elements           Molality       Moles

	Ca               6.000e-004  6.000e-004
	Cl               1.200e-003  1.200e-003

----------------------------Description of solution----------------------------

                                       pH  =   7.000    
                                       pe  =  12.500    
                        Activity of water  =   1.000
                           Ionic strength  =  1.800e-003
                       Mass of water (kg)  =  1.000e+000
                 Total alkalinity (eq/kg)  =  1.314e-009
                    Total carbon (mol/kg)  =  0.000e+000
                       Total CO2 (mol/kg)  =  0.000e+000
                      Temperature (deg C)  =  25.000
                  Electrical balance (eq)  = -1.314e-009
 Percent error, 100*(Cat-|An|)/(Cat+|An|)  =  -0.00
                               Iterations  =   4
                                  Total H  = 1.110124e+002
                                  Total O  = 5.550622e+001

----------------------------Distribution of species----------------------------

                                                   Log       Log         Log 
   Species                 Molality    Activity  Molality  Activity     Gamma

   OH-                   1.050e-007  1.001e-007    -6.979    -7.000    -0.021
   H+                    1.045e-007  1.000e-007    -6.981    -7.000    -0.019
   H2O                   5.551e+001  1.000e+000     1.744    -0.000     0.000
Ca              6.000e-004
   Ca+2                  6.000e-004  4.985e-004    -3.222    -3.302    -0.081
   CaOH+                 8.661e-010  8.272e-010    -9.062    -9.082    -0.020
Cl              1.200e-003
   Cl-                   1.200e-003  1.144e-003    -2.921    -2.941    -0.021
H(0)            0.000e+000
   H2                    0.000e+000  0.000e+000   -42.150   -42.150     0.000
O(0)            1.663e-008
   O2                    8.314e-009  8.317e-009    -8.080    -8.080     0.000

------------------------------Saturation indices-------------------------------

	Phase               SI log IAP  log KT

	H2(g)           -39.00  -42.15   -3.15  H2
	O2(g)            -5.19   -8.08   -2.89  O2
	Portlandite     -12.10   10.70   22.80  Ca(OH)2

-------------------------------------------
Beginning of initial solution calculations.
-------------------------------------------

Initial solution 0.	WELL in layer 1, row 1, column 1

-----------------------------Solution composition------------------------------

	Elements           Molality       Moles

	Ca               6.000e-004  6.000e-004
	Cl               1.200e-003  1.200e-003

----------------------------Description of solution----------------------------

                                       pH  =   7.000    
                                       pe  =  12.500    
                        Activity of water  =   1.000
                           Ionic strength  =  1.800e-003
                       Mass of water (kg)  =  1.000e+000
                 Total alkalinity (eq/kg)  =  1.314e-009
                    Total carbon (mol/kg)  =  0.000e+000
                       Total CO2 (mol/kg)  =  0.000e+000
                      Temperature (deg C)  =  25.000
                  Electrical balance (eq)  = -1.314e-009
 Percent error, 100*(Cat-|An|)/(Cat+|An|)  =  -0.00
                               Iterations  =   4
                                  Total H  = 1.110124e+002
                                  Total O  = 5.550622e+001

----------------------------Distribution of species----------------------------

                                                   Log       Log         Log 
   Species                 Molality    Activity  Molality  Activity     Gamma

   OH-                   1.050e-007  1.001e-007    -6.979    -7.000    -0.021
   H+                    1.045e-007  1.000e-007    -6.981    -7.000    -0.019
   H2O                   5.551e+001  1.000e+000     1.744    -0.000     0.000
Ca              6.000e-004
   Ca+2                  6.000e-004  4.985e-004    -3.222    -3.302    -0.081
   CaOH+                 8.661e-010  8.272e-010    -9.062    -9.082    -0.020
Cl              1.200e-003
   Cl-                   1.200e-003  1.144e-003    -2.921    -2.941    -0.021
H(0)            0.000e+000
   H2                    0.000e+000  0.000e+000   -42.150   -42.150     0.000
O(0)            1.663e-008
   O2                    8.314e-009  8.317e-009    -8.080    -8.080     0.000

------------------------------Saturation indices-------------------------------

	Phase               SI log IAP  log KT

	H2(g)           -39.00  -42.15   -3.15  H2
	O2(g)            -5.19   -8.08   -2.89  O2
	Portlandite     -12.10   10.70   22.80  Ca(OH)2

-------------------------------------------
Beginning of initial solution calculations.
-------------------------------------------

Initial solution 0.	WELL in layer 1, row 1, column 1

-----------------------------Solution composition------------------------------

	Elements           Molality       Moles

	Ca               6.000e-004  6.000e-004
	Cl               1.200e-003  1.200e-003

----------------------------Description of solution----------------------------

                                       pH  =   7.000    
                                       pe  =  12.500    
                        Activity of water  =   1.000
                           Ionic strength  =  1.800e-003
                       Mass of water (kg)  =  1.000e+000
                 Total alkalinity (eq/kg)  =  1.314e-009
                    Total carbon (mol/kg)  =  0.000e+000
                       Total CO2 (mol/kg)  =  0.000e+000
                      Temperature (deg C)  =  25.000
                  Electrical balance (eq)  = -1.314e-009
 Percent error, 100*(Cat-|An|)/(Cat+|An|)  =  -0.00
                               Iterations  =   4
                                  Total H  = 1.110124e+002
                                  Total O  = 5.550622e+001

----------------------------Distribution of species----------------------------

                                                   Log       Log         Log 
   Species                 Molality    Activity  Molality  Activity     Gamma

   OH-                   1.050e-007  1.001e-007    -6.979    -7.000    -0.021
   H+                    1.045e-007  1.000e-007    -6.981    -7.000    -0.019
   H2O                   5.551e+001  1.000e+000     1.744    -0.000     0.000
Ca              6.000e-004
   Ca+2                  6.000e-004  4.985e-004    -3.222    -3.302    -0.081
   CaOH+                 8.661e-010  8.272e-010    -9.062    -9.082    -0.020
Cl              1.200e-003
   Cl-                   1.200e-003  1.144e-003    -2.921    -2.941    -0.021
H(0)            0.000e+000
   H2                    0.000e+000  0.000e+000   -42.150   -42.150     0.000
O(0)            1.663e-008
   O2                    8.314e-009  8.317e-009    -8.080    -8.080     0.000

------------------------------Saturation indices-------------------------------

	Phase               SI log IAP  log KT

	H2(g)           -39.00  -42.15   -3.15  H2
	O2(g)            -5.19   -8.08   -2.89  O2
	Portlandite     -12.10   10.70   22.80  Ca(OH)2

-------------------------------------------
Beginning of initial solution calculations.
-------------------------------------------

Initial solution 0.	WELL in layer 1, row 1, column 1

-----------------------------Solution composition------------------------------

	Elements           Molality       Moles

	Ca               6.000e-004  6.000e-004
	Cl               1.200e-003  1.200e-003

----------------------------Description of solution----------------------------

                                       pH  =   7.000    
                                       pe  =  12.500    
                        Activity of water  =   1.000
                           Ionic strength  =  1.800e-003
                       Mass of water (kg)  =  1.000e+000
                 Total alkalinity (eq/kg)  =  1.314e-009
                    Total carbon (mol/kg)  =  0.000e+000
                       Total CO2 (mol/kg)  =  0.000e+000
                      Temperature (deg C)  =  25.000
                  Electrical balance (eq)  = -1.314e-009
 Percent error, 100*(Cat-|An|)/(Cat+|An|)  =  -0.00
                               Iterations  =   4
                                  Total H  = 1.110124e+002
                                  Total O  = 5.550622e+001

----------------------------Distribution of species----------------------------

                                                   Log       Log         Log 
   Species                 Molality    Activity  Molality  Activity     Gamma

   OH-                   1.050e-007  1.001e-007    -6.979    -7.000    -0.021
   H+                    1.045e-007  1.000e-007    -6.981    -7.000    -0.019
   H2O                   5.551e+001  1.000e+000     1.744    -0.000     0.000
Ca              6.000e-004
   Ca+2                  6.000e-004  4.985e-004    -3.222    -3.302    -0.081
   CaOH+                 8.661e-010  8.272e-010    -9.062    -9.082    -0.020
Cl              1.200e-003
   Cl-                   1.200e-003  1.144e-003    -2.921    -2.941    -0.021
H(0)            0.000e+000
   H2                    0.000e+000  0.000e+000   -42.150   -42.150     0.000
O(0)            1.663e-008
   O2                    8.314e-009  8.317e-009    -8.080    -8.080     0.000

------------------------------Saturation indices-------------------------------

	Phase               SI log IAP  log KT

	H2(g)           -39.00  -42.15   -3.15  H2
	O2(g)            -5.19   -8.08   -2.89  O2
	Portlandite     -12.10   10.70   22.80  Ca(OH)2

