                                  MODFLOW-2000
      U.S. GEOLOGICAL SURVEY MODULAR FINITE-DIFFERENCE GROUND-WATER FLOW MODEL
                           VERSION 1.18.01 06/20/2008


 This model run combines GLOBAL and LIST output into this single file.

 GLOBAL LISTING FILE: phreeqc_ex11.lst
                         UNIT    2

 OPENING phreeqc_ex11.dis
 FILE TYPE:DIS   UNIT   10   STATUS:OLD    
 FORMAT:FORMATTED              ACCESS:SEQUENTIAL          

 OPENING phreeqc_ex11.bas6
 FILE TYPE:BAS6   UNIT   11   STATUS:OLD    
 FORMAT:FORMATTED              ACCESS:SEQUENTIAL          

 OPENING phreeqc_ex11.lpf
 FILE TYPE:LPF   UNIT   12   STATUS:OLD    
 FORMAT:FORMATTED              ACCESS:SEQUENTIAL          

 OPENING phreeqc_ex11.pcg
 FILE TYPE:PCG   UNIT   14   STATUS:OLD    
 FORMAT:FORMATTED              ACCESS:SEQUENTIAL          

 OPENING phreeqc_ex11.oc
 FILE TYPE:OC   UNIT   26   STATUS:OLD    
 FORMAT:FORMATTED              ACCESS:SEQUENTIAL          

 OPENING phreeqc_ex11.head
 FILE TYPE:DATA(BINARY)   UNIT   30   STATUS:UNKNOWN
 FORMAT:BINARY                 ACCESS:SEQUENTIAL          

 OPENING phreeqc_ex11.budget
 FILE TYPE:DATA(BINARY)   UNIT   31   STATUS:UNKNOWN
 FORMAT:BINARY                 ACCESS:SEQUENTIAL          

 OPENING phreeqc_ex11.lmt
 FILE TYPE:LMT6   UNIT   28   STATUS:OLD    
 FORMAT:FORMATTED              ACCESS:SEQUENTIAL          

 OPENING phreeqc_ex11.wel
 FILE TYPE:WEL   UNIT   36   STATUS:OLD    
 FORMAT:FORMATTED              ACCESS:SEQUENTIAL          

 THE FREE FORMAT OPTION HAS BEEN SELECTED

 DISCRETIZATION INPUT DATA READ FROM UNIT   10
    1 LAYERS         1 ROWS        40 COLUMNS
  120 STRESS PERIOD(S) IN SIMULATION
 MODEL TIME UNIT IS DAYS
 MODEL LENGTH UNIT IS METERS
 THE GROUND-WATER TRANSPORT PROCESS IS INACTIVE

 THE OBSERVATION PROCESS IS INACTIVE
 THE SENSITIVITY PROCESS IS INACTIVE
 THE PARAMETER-ESTIMATION PROCESS IS INACTIVE

 MODE: FORWARD

  Confining bed flag for each layer:
   0

        401  ELEMENTS OF GX ARRAY USED OUT OF        401
         40  ELEMENTS OF GZ ARRAY USED OUT OF         40
         40  ELEMENTS OF IG ARRAY USED OUT OF         40

                     DELR =  2.000000E-03

                     DELC =   1.00000    

 TOP ELEVATION OF LAYER 1 =   1.00000    

   MODEL LAYER BOTTOM EL. =   0.00000     FOR LAYER   1


 STRESS PERIOD     LENGTH       TIME STEPS     MULTIPLIER FOR DELT    SS FLAG
 ----------------------------------------------------------------------------
        1        2.0000001E-03      1                    1.000         SS
        2        2.0000001E-03      1                    1.000         TR
        3        2.0000001E-03      1                    1.000         TR
        4        2.0000001E-03      1                    1.000         TR
        5        2.0000001E-03      1                    1.000         TR
        6        2.0000001E-03      1                    1.000         TR
        7        2.0000001E-03      1                    1.000         TR
        8        2.0000001E-03      1                    1.000         TR
        9        2.0000001E-03      1                    1.000         TR
       10        2.0000001E-03      1                    1.000         TR
       11        2.0000001E-03      1                    1.000         TR
       12        2.0000001E-03      1                    1.000         TR
       13        2.0000001E-03      1                    1.000         TR
       14        2.0000001E-03      1                    1.000         TR
       15        2.0000001E-03      1                    1.000         TR
       16        2.0000001E-03      1                    1.000         TR
       17        2.0000001E-03      1                    1.000         TR
       18        2.0000001E-03      1                    1.000         TR
       19        2.0000001E-03      1                    1.000         TR
       20        2.0000001E-03      1                    1.000         TR
       21        2.0000001E-03      1                    1.000         TR
       22        2.0000001E-03      1                    1.000         TR
       23        2.0000001E-03      1                    1.000         TR
       24        2.0000001E-03      1                    1.000         TR
       25        2.0000001E-03      1                    1.000         TR
       26        2.0000001E-03      1                    1.000         TR
       27        2.0000001E-03      1                    1.000         TR
       28        2.0000001E-03      1                    1.000         TR
       29        2.0000001E-03      1                    1.000         TR
       30        2.0000001E-03      1                    1.000         TR
       31        2.0000001E-03      1                    1.000         TR
       32        2.0000001E-03      1                    1.000         TR
       33        2.0000001E-03      1                    1.000         TR
       34        2.0000001E-03      1                    1.000         TR
       35        2.0000001E-03      1                    1.000         TR
       36        2.0000001E-03      1                    1.000         TR
       37        2.0000001E-03      1                    1.000         TR
       38        2.0000001E-03      1                    1.000         TR
       39        2.0000001E-03      1                    1.000         TR
       40        2.0000001E-03      1                    1.000         TR
       41        2.0000001E-03      1                    1.000         TR
       42        2.0000001E-03      1                    1.000         TR
       43        2.0000001E-03      1                    1.000         TR
       44        2.0000001E-03      1                    1.000         TR
       45        2.0000001E-03      1                    1.000         TR
       46        2.0000001E-03      1                    1.000         TR
       47        2.0000001E-03      1                    1.000         TR
       48        2.0000001E-03      1                    1.000         TR
       49        2.0000001E-03      1                    1.000         TR
       50        2.0000001E-03      1                    1.000         TR
       51        2.0000001E-03      1                    1.000         TR
       52        2.0000001E-03      1                    1.000         TR
       53        2.0000001E-03      1                    1.000         TR
       54        2.0000001E-03      1                    1.000         TR
       55        2.0000001E-03      1                    1.000         TR
       56        2.0000001E-03      1                    1.000         TR
       57        2.0000001E-03      1                    1.000         TR
       58        2.0000001E-03      1                    1.000         TR
       59        2.0000001E-03      1                    1.000         TR
       60        2.0000001E-03      1                    1.000         TR
       61        2.0000001E-03      1                    1.000         TR
       62        2.0000001E-03      1                    1.000         TR
       63        2.0000001E-03      1                    1.000         TR
       64        2.0000001E-03      1                    1.000         TR
       65        2.0000001E-03      1                    1.000         TR
       66        2.0000001E-03      1                    1.000         TR
       67        2.0000001E-03      1                    1.000         TR
       68        2.0000001E-03      1                    1.000         TR
       69        2.0000001E-03      1                    1.000         TR
       70        2.0000001E-03      1                    1.000         TR
       71        2.0000001E-03      1                    1.000         TR
       72        2.0000001E-03      1                    1.000         TR
       73        2.0000001E-03      1                    1.000         TR
       74        2.0000001E-03      1                    1.000         TR
       75        2.0000001E-03      1                    1.000         TR
       76        2.0000001E-03      1                    1.000         TR
       77        2.0000001E-03      1                    1.000         TR
       78        2.0000001E-03      1                    1.000         TR
       79        2.0000001E-03      1                    1.000         TR
       80        2.0000001E-03      1                    1.000         TR
       81        2.0000001E-03      1                    1.000         TR
       82        2.0000001E-03      1                    1.000         TR
       83        2.0000001E-03      1                    1.000         TR
       84        2.0000001E-03      1                    1.000         TR
       85        2.0000001E-03      1                    1.000         TR
       86        2.0000001E-03      1                    1.000         TR
       87        2.0000001E-03      1                    1.000         TR
       88        2.0000001E-03      1                    1.000         TR
       89        2.0000001E-03      1                    1.000         TR
       90        2.0000001E-03      1                    1.000         TR
       91        2.0000001E-03      1                    1.000         TR
       92        2.0000001E-03      1                    1.000         TR
       93        2.0000001E-03      1                    1.000         TR
       94        2.0000001E-03      1                    1.000         TR
       95        2.0000001E-03      1                    1.000         TR
       96        2.0000001E-03      1                    1.000         TR
       97        2.0000001E-03      1                    1.000         TR
       98        2.0000001E-03      1                    1.000         TR
       99        2.0000001E-03      1                    1.000         TR
      100        2.0000001E-03      1                    1.000         TR
      101        2.0000001E-03      1                    1.000         TR
      102        2.0000001E-03      1                    1.000         TR
      103        2.0000001E-03      1                    1.000         TR
      104        2.0000001E-03      1                    1.000         TR
      105        2.0000001E-03      1                    1.000         TR
      106        2.0000001E-03      1                    1.000         TR
      107        2.0000001E-03      1                    1.000         TR
      108        2.0000001E-03      1                    1.000         TR
      109        2.0000001E-03      1                    1.000         TR
      110        2.0000001E-03      1                    1.000         TR
      111        2.0000001E-03      1                    1.000         TR
      112        2.0000001E-03      1                    1.000         TR
      113        2.0000001E-03      1                    1.000         TR
      114        2.0000001E-03      1                    1.000         TR
      115        2.0000001E-03      1                    1.000         TR
      116        2.0000001E-03      1                    1.000         TR
      117        2.0000001E-03      1                    1.000         TR
      118        2.0000001E-03      1                    1.000         TR
      119        2.0000001E-03      1                    1.000         TR
      120        2.0000001E-03      1                    1.000         TR

 COMBINED STEADY-STATE AND TRANSIENT SIMULATION




 LPF1 -- LAYER PROPERTY FLOW PACKAGE, VERSION 1, 1/11/2000
         INPUT READ FROM UNIT   12
 CELL-BY-CELL FLOWS WILL BE SAVED ON UNIT   31
 HEAD AT CELLS THAT CONVERT TO DRY=  1.00000E-02
 No named parameters

   LAYER FLAGS:
 LAYER       LAYTYP        LAYAVG         CHANI        LAYVKA        LAYWET
 ---------------------------------------------------------------------------
    1             0             0     1.000E+00             0             0

   INTERPRETATION OF LAYER FLAGS:
                        INTERBLOCK     HORIZONTAL    DATA IN
         LAYER TYPE   TRANSMISSIVITY   ANISOTROPY   ARRAY VKA   WETTABILITY
 LAYER      (LAYTYP)      (LAYAVG)       (CHANI)      (LAYVKA)      (LAYWET)
 ---------------------------------------------------------------------------
    1      CONFINED      HARMONIC     1.000E+00    VERTICAL K  NON-WETTABLE

        120 ELEMENTS IN X ARRAY ARE USED BY LPF
          6 ELEMENTS IN IX ARRAY ARE USED BY LPF

 PCG2 -- CONJUGATE GRADIENT SOLUTION PACKAGE, VERSION 2.4, 12/29/98
 MAXIMUM OF     10 CALLS OF SOLUTION ROUTINE
 MAXIMUM OF  30000 INTERNAL ITERATIONS PER CALL TO SOLUTION ROUTINE
 MATRIX PRECONDITIONING TYPE :    1
     600080 ELEMENTS IN X ARRAY ARE USED BY PCG
    2100000 ELEMENTS IN IX ARRAY ARE USED BY PCG
        160 ELEMENTS IN Z ARRAY ARE USED BY PCG

     600200  ELEMENTS OF X ARRAY USED OUT OF     600200
        160  ELEMENTS OF Z ARRAY USED OUT OF        160
    2100006  ELEMENTS OF IX ARRAY USED OUT OF    2100006
          0  ELEMENTS OF XHS ARRAY USED OUT OF          1



                                    SOLUTION BY THE CONJUGATE-GRADIENT METHOD
                                   -------------------------------------------
                    MAXIMUM NUMBER OF CALLS TO PCG ROUTINE =       10
                        MAXIMUM ITERATIONS PER CALL TO PCG =    30000
                               MATRIX PRECONDITIONING TYPE =        1
        RELAXATION FACTOR (ONLY USED WITH PRECOND. TYPE 1) =    0.10000E+01
 PARAMETER OF POLYNOMIAL PRECOND. = 2 (2) OR IS CALCULATED :        2
                         HEAD CHANGE CRITERION FOR CLOSURE =    0.10000E-03
                     RESIDUAL CHANGE CRITERION FOR CLOSURE =    0.10000E-02
            PCG HEAD AND RESIDUAL CHANGE PRINTOUT INTERVAL =      999
     PRINTING FROM SOLVER IS LIMITED(1) OR SUPPRESSED (>1) =        2
                                         DAMPING PARAMETER =    0.10000E+01

 WETTING CAPABILITY IS NOT ACTIVE IN ANY LAYER

    HYD. COND. ALONG ROWS =   1.00000     FOR LAYER   1

      VERTICAL HYD. COND. =   1.00000     FOR LAYER   1

         SPECIFIC STORAGE =  1.000000E-06 FOR LAYER   1
 
 #         0                                                                     
 THE FREE FORMAT OPTION HAS BEEN SELECTED
    1 LAYERS         1 ROWS        40 COLUMNS
  120 STRESS PERIOD(S) IN SIMULATION

 BAS6 -- BASIC PACKAGE, VERSION 6, 1/11/2000 INPUT READ FROM UNIT   11
          5 ELEMENTS IN IR ARRAY ARE USED BY BAS

 WEL6 -- WELL PACKAGE, VERSION 6, 1/11/2000 INPUT READ FROM UNIT   36
 No named parameters
 MAXIMUM OF      1 ACTIVE WELLS AT ONE TIME
 CELL-BY-CELL FLOWS WILL BE SAVED ON UNIT   31
          4 ELEMENTS IN RX ARRAY ARE USED BY WEL

          4  ELEMENTS OF RX ARRAY USED OUT OF          4
          0  ELEMENTS OF RZ ARRAY USED OUT OF          1
          5  ELEMENTS OF IR ARRAY USED OUT OF          5
1
 #         0                                                                     
                                                                                 



                     BOUNDARY ARRAY FOR LAYER   1
 READING ON UNIT   11 WITH FORMAT: (40I3)              

        1   2   3   4   5   6   7   8   9  10  11  12  13  14  15  16  17  18  19  20  21  22  23  24  25  26  27  28  29  30
       31  32  33  34  35  36  37  38  39  40
 ............................................................................................................................
   1    1   1   1   1   1   1   1   1   1   1   1   1   1   1   1   1   1   1   1   1   1   1   1   1   1   1   1   1   1   1
        1   1   1   1   1   1   1   1   1  -1

 AQUIFER HEAD WILL BE SET TO  0.0000     AT ALL NO-FLOW NODES (IBOUND=0).

             INITIAL HEAD =   1.00000     FOR LAYER   1

 OUTPUT CONTROL IS SPECIFIED ONLY AT TIME STEPS FOR WHICH OUTPUT IS DESIRED
 COMPACT CELL-BY-CELL BUDGET FILES WILL BE WRITTEN
 HEAD PRINT FORMAT CODE IS   0    DRAWDOWN PRINT FORMAT CODE IS   0
 HEADS WILL BE SAVED ON UNIT   30    DRAWDOWNS WILL BE SAVED ON UNIT    0


     0 Well parameters
1
                            STRESS PERIOD NO.    1, LENGTH =  0.2000000E-02
                            -----------------------------------------------

                              NUMBER OF TIME STEPS =     1

                               MULTIPLIER FOR DELT =     1.000

                            INITIAL TIME STEP SIZE =  0.2000000E-02

 WELL NO.  LAYER   ROW   COL   STRESS RATE         
 --------------------------------------------------
      1      1      1      1       1.000    

      1 WELL
 
 SOLVING FOR HEAD 

 OUTPUT CONTROL FOR STRESS PERIOD    1   TIME STEP   1
    SAVE HEAD FOR ALL LAYERS
    SAVE BUDGET
 UBDSV2 SAVING "   CONSTANT HEAD" ON UNIT  31 AT TIME STEP  1, STRESS PERIOD   1
 UBDSV1 SAVING "FLOW RIGHT FACE " ON UNIT  31 AT TIME STEP  1, STRESS PERIOD   1
 UBDSV4 SAVING "           WELLS" ON UNIT  31 AT TIME STEP  1, STRESS PERIOD   1


 ***Link-MT3DMS Package***
 OPENING LINK-MT3DMS OUTPUT FILE: phreeqc_ex11.flo                                                                                                                                                                                        
 ON UNIT NUMBER:   333
 FILE TYPE: UNFORMATTED
 HEADER OPTION: STANDARD
 ***Link-MT3DMS Package***


 SAVING SATURATED THICKNESS AND FLOW TERMS ON UNIT  333 FOR MT3DMS
 BY THE LINK-MT3DMS PACKAGE V6.3 AT TIME STEP    1, STRESS PERIOD    1


 HEAD WILL BE SAVED ON UNIT   30 AT END OF TIME STEP   1, STRESS PERIOD    1
1
  VOLUMETRIC BUDGET FOR ENTIRE MODEL AT END OF TIME STEP  1 IN STRESS PERIOD   1
  ------------------------------------------------------------------------------

     CUMULATIVE VOLUMES      L**3       RATES FOR THIS TIME STEP      L**3/T
     ------------------                 ------------------------

           IN:                                      IN:
           ---                                      ---
             STORAGE =           0.0000               STORAGE =           0.0000
       CONSTANT HEAD =           0.0000         CONSTANT HEAD =           0.0000
               WELLS =       2.0000E-03                 WELLS =           1.0000

            TOTAL IN =       2.0000E-03              TOTAL IN =           1.0000

          OUT:                                     OUT:
          ----                                     ----
             STORAGE =           0.0000               STORAGE =           0.0000
       CONSTANT HEAD =       2.0000E-03         CONSTANT HEAD =           1.0000
               WELLS =           0.0000                 WELLS =           0.0000

           TOTAL OUT =       2.0000E-03             TOTAL OUT =           1.0000

            IN - OUT =           0.0000              IN - OUT =           0.0000

 PERCENT DISCREPANCY =           0.00     PERCENT DISCREPANCY =           0.00






          TIME SUMMARY AT END OF TIME STEP   1 IN STRESS PERIOD    1
                    SECONDS     MINUTES      HOURS       DAYS        YEARS
                    -----------------------------------------------------------
   TIME STEP LENGTH  172.80      2.8800     4.80000E-02 2.00000E-03 5.47570E-06
 STRESS PERIOD TIME  172.80      2.8800     4.80000E-02 2.00000E-03 5.47570E-06
         TOTAL TIME  172.80      2.8800     4.80000E-02 2.00000E-03 5.47570E-06
1
1
                            STRESS PERIOD NO.    2, LENGTH =  0.2000000E-02
                            -----------------------------------------------

                              NUMBER OF TIME STEPS =     1

                               MULTIPLIER FOR DELT =     1.000

                            INITIAL TIME STEP SIZE =  0.2000000E-02

 WELL NO.  LAYER   ROW   COL   STRESS RATE         
 --------------------------------------------------
      1      1      1      1       1.000    

      1 WELL
 
 SOLVING FOR HEAD 

 OUTPUT CONTROL FOR STRESS PERIOD    2   TIME STEP   1
    SAVE HEAD FOR ALL LAYERS
    SAVE BUDGET
 UBDSV1 SAVING "         STORAGE" ON UNIT  31 AT TIME STEP  1, STRESS PERIOD   2
 UBDSV2 SAVING "   CONSTANT HEAD" ON UNIT  31 AT TIME STEP  1, STRESS PERIOD   2
 UBDSV1 SAVING "FLOW RIGHT FACE " ON UNIT  31 AT TIME STEP  1, STRESS PERIOD   2
 UBDSV4 SAVING "           WELLS" ON UNIT  31 AT TIME STEP  1, STRESS PERIOD   2

 SAVING SATURATED THICKNESS AND FLOW TERMS ON UNIT  333 FOR MT3DMS
 BY THE LINK-MT3DMS PACKAGE V6.3 AT TIME STEP    1, STRESS PERIOD    2


 HEAD WILL BE SAVED ON UNIT   30 AT END OF TIME STEP   1, STRESS PERIOD    2
1
  VOLUMETRIC BUDGET FOR ENTIRE MODEL AT END OF TIME STEP  1 IN STRESS PERIOD   2
  ------------------------------------------------------------------------------

     CUMULATIVE VOLUMES      L**3       RATES FOR THIS TIME STEP      L**3/T
     ------------------                 ------------------------

           IN:                                      IN:
           ---                                      ---
             STORAGE =       1.1599E-15               STORAGE =       5.7997E-13
       CONSTANT HEAD =           0.0000         CONSTANT HEAD =           0.0000
               WELLS =       4.0000E-03                 WELLS =           1.0000

            TOTAL IN =       4.0000E-03              TOTAL IN =           1.0000

          OUT:                                     OUT:
          ----                                     ----
             STORAGE =       1.2104E-15               STORAGE =       6.0521E-13
       CONSTANT HEAD =       4.0000E-03         CONSTANT HEAD =           1.0000
               WELLS =           0.0000                 WELLS =           0.0000

           TOTAL OUT =       4.0000E-03             TOTAL OUT =           1.0000

            IN - OUT =           0.0000              IN - OUT =           0.0000

 PERCENT DISCREPANCY =           0.00     PERCENT DISCREPANCY =           0.00






          TIME SUMMARY AT END OF TIME STEP   1 IN STRESS PERIOD    2
                    SECONDS     MINUTES      HOURS       DAYS        YEARS
                    -----------------------------------------------------------
   TIME STEP LENGTH  172.80      2.8800     4.80000E-02 2.00000E-03 5.47570E-06
 STRESS PERIOD TIME  172.80      2.8800     4.80000E-02 2.00000E-03 5.47570E-06
         TOTAL TIME  345.60      5.7600     9.60000E-02 4.00000E-03 1.09514E-05
1
1
                            STRESS PERIOD NO.    3, LENGTH =  0.2000000E-02
                            -----------------------------------------------

                              NUMBER OF TIME STEPS =     1

                               MULTIPLIER FOR DELT =     1.000

                            INITIAL TIME STEP SIZE =  0.2000000E-02

 WELL NO.  LAYER   ROW   COL   STRESS RATE         
 --------------------------------------------------
      1      1      1      1       1.000    

      1 WELL
 
 SOLVING FOR HEAD 

 OUTPUT CONTROL FOR STRESS PERIOD    3   TIME STEP   1
    SAVE HEAD FOR ALL LAYERS
    SAVE BUDGET
 UBDSV1 SAVING "         STORAGE" ON UNIT  31 AT TIME STEP  1, STRESS PERIOD   3
 UBDSV2 SAVING "   CONSTANT HEAD" ON UNIT  31 AT TIME STEP  1, STRESS PERIOD   3
 UBDSV1 SAVING "FLOW RIGHT FACE " ON UNIT  31 AT TIME STEP  1, STRESS PERIOD   3
 UBDSV4 SAVING "           WELLS" ON UNIT  31 AT TIME STEP  1, STRESS PERIOD   3

 SAVING SATURATED THICKNESS AND FLOW TERMS ON UNIT  333 FOR MT3DMS
 BY THE LINK-MT3DMS PACKAGE V6.3 AT TIME STEP    1, STRESS PERIOD    3


 HEAD WILL BE SAVED ON UNIT   30 AT END OF TIME STEP   1, STRESS PERIOD    3
1
  VOLUMETRIC BUDGET FOR ENTIRE MODEL AT END OF TIME STEP  1 IN STRESS PERIOD   3
  ------------------------------------------------------------------------------

     CUMULATIVE VOLUMES      L**3       RATES FOR THIS TIME STEP      L**3/T
     ------------------                 ------------------------

           IN:                                      IN:
           ---                                      ---
             STORAGE =       2.3199E-15               STORAGE =       5.7997E-13
       CONSTANT HEAD =           0.0000         CONSTANT HEAD =           0.0000
               WELLS =       6.0000E-03                 WELLS =           1.0000

            TOTAL IN =       6.0000E-03              TOTAL IN =           1.0000

          OUT:                                     OUT:
          ----                                     ----
             STORAGE =       2.4209E-15               STORAGE =       6.0521E-13
       CONSTANT HEAD =       6.0000E-03         CONSTANT HEAD =           1.0000
               WELLS =           0.0000                 WELLS =           0.0000

           TOTAL OUT =       6.0000E-03             TOTAL OUT =           1.0000

            IN - OUT =           0.0000              IN - OUT =           0.0000

 PERCENT DISCREPANCY =           0.00     PERCENT DISCREPANCY =           0.00






          TIME SUMMARY AT END OF TIME STEP   1 IN STRESS PERIOD    3
                    SECONDS     MINUTES      HOURS       DAYS        YEARS
                    -----------------------------------------------------------
   TIME STEP LENGTH  172.80      2.8800     4.80000E-02 2.00000E-03 5.47570E-06
 STRESS PERIOD TIME  172.80      2.8800     4.80000E-02 2.00000E-03 5.47570E-06
         TOTAL TIME  518.40      8.6400     0.14400     6.00000E-03 1.64271E-05
1
1
                            STRESS PERIOD NO.    4, LENGTH =  0.2000000E-02
                            -----------------------------------------------

                              NUMBER OF TIME STEPS =     1

                               MULTIPLIER FOR DELT =     1.000

                            INITIAL TIME STEP SIZE =  0.2000000E-02

 WELL NO.  LAYER   ROW   COL   STRESS RATE         
 --------------------------------------------------
      1      1      1      1       1.000    

      1 WELL
 
 SOLVING FOR HEAD 

 OUTPUT CONTROL FOR STRESS PERIOD    4   TIME STEP   1
    SAVE HEAD FOR ALL LAYERS
    SAVE BUDGET
 UBDSV1 SAVING "         STORAGE" ON UNIT  31 AT TIME STEP  1, STRESS PERIOD   4
 UBDSV2 SAVING "   CONSTANT HEAD" ON UNIT  31 AT TIME STEP  1, STRESS PERIOD   4
 UBDSV1 SAVING "FLOW RIGHT FACE " ON UNIT  31 AT TIME STEP  1, STRESS PERIOD   4
 UBDSV4 SAVING "           WELLS" ON UNIT  31 AT TIME STEP  1, STRESS PERIOD   4

 SAVING SATURATED THICKNESS AND FLOW TERMS ON UNIT  333 FOR MT3DMS
 BY THE LINK-MT3DMS PACKAGE V6.3 AT TIME STEP    1, STRESS PERIOD    4


 HEAD WILL BE SAVED ON UNIT   30 AT END OF TIME STEP   1, STRESS PERIOD    4
1
  VOLUMETRIC BUDGET FOR ENTIRE MODEL AT END OF TIME STEP  1 IN STRESS PERIOD   4
  ------------------------------------------------------------------------------

     CUMULATIVE VOLUMES      L**3       RATES FOR THIS TIME STEP      L**3/T
     ------------------                 ------------------------

           IN:                                      IN:
           ---                                      ---
             STORAGE =       3.4798E-15               STORAGE =       5.7997E-13
       CONSTANT HEAD =           0.0000         CONSTANT HEAD =           0.0000
               WELLS =       8.0000E-03                 WELLS =           1.0000

            TOTAL IN =       8.0000E-03              TOTAL IN =           1.0000

          OUT:                                     OUT:
          ----                                     ----
             STORAGE =       3.6313E-15               STORAGE =       6.0521E-13
       CONSTANT HEAD =       8.0000E-03         CONSTANT HEAD =           1.0000
               WELLS =           0.0000                 WELLS =           0.0000

           TOTAL OUT =       8.0000E-03             TOTAL OUT =           1.0000

            IN - OUT =           0.0000              IN - OUT =           0.0000

 PERCENT DISCREPANCY =           0.00     PERCENT DISCREPANCY =           0.00






          TIME SUMMARY AT END OF TIME STEP   1 IN STRESS PERIOD    4
                    SECONDS     MINUTES      HOURS       DAYS        YEARS
                    -----------------------------------------------------------
   TIME STEP LENGTH  172.80      2.8800     4.80000E-02 2.00000E-03 5.47570E-06
 STRESS PERIOD TIME  172.80      2.8800     4.80000E-02 2.00000E-03 5.47570E-06
         TOTAL TIME  691.20      11.520     0.19200     8.00000E-03 2.19028E-05
1
1
                            STRESS PERIOD NO.    5, LENGTH =  0.2000000E-02
                            -----------------------------------------------

                              NUMBER OF TIME STEPS =     1

                               MULTIPLIER FOR DELT =     1.000

                            INITIAL TIME STEP SIZE =  0.2000000E-02

 WELL NO.  LAYER   ROW   COL   STRESS RATE         
 --------------------------------------------------
      1      1      1      1       1.000    

      1 WELL
 
 SOLVING FOR HEAD 

 OUTPUT CONTROL FOR STRESS PERIOD    5   TIME STEP   1
    SAVE HEAD FOR ALL LAYERS
    SAVE BUDGET
 UBDSV1 SAVING "         STORAGE" ON UNIT  31 AT TIME STEP  1, STRESS PERIOD   5
 UBDSV2 SAVING "   CONSTANT HEAD" ON UNIT  31 AT TIME STEP  1, STRESS PERIOD   5
 UBDSV1 SAVING "FLOW RIGHT FACE " ON UNIT  31 AT TIME STEP  1, STRESS PERIOD   5
 UBDSV4 SAVING "           WELLS" ON UNIT  31 AT TIME STEP  1, STRESS PERIOD   5

 SAVING SATURATED THICKNESS AND FLOW TERMS ON UNIT  333 FOR MT3DMS
 BY THE LINK-MT3DMS PACKAGE V6.3 AT TIME STEP    1, STRESS PERIOD    5


 HEAD WILL BE SAVED ON UNIT   30 AT END OF TIME STEP   1, STRESS PERIOD    5
1
  VOLUMETRIC BUDGET FOR ENTIRE MODEL AT END OF TIME STEP  1 IN STRESS PERIOD   5
  ------------------------------------------------------------------------------

     CUMULATIVE VOLUMES      L**3       RATES FOR THIS TIME STEP      L**3/T
     ------------------                 ------------------------

           IN:                                      IN:
           ---                                      ---
             STORAGE =       4.6397E-15               STORAGE =       5.7997E-13
       CONSTANT HEAD =           0.0000         CONSTANT HEAD =           0.0000
               WELLS =       1.0000E-02                 WELLS =           1.0000

            TOTAL IN =       1.0000E-02              TOTAL IN =           1.0000

          OUT:                                     OUT:
          ----                                     ----
             STORAGE =       4.8417E-15               STORAGE =       6.0521E-13
       CONSTANT HEAD =       1.0000E-02         CONSTANT HEAD =           1.0000
               WELLS =           0.0000                 WELLS =           0.0000

           TOTAL OUT =       1.0000E-02             TOTAL OUT =           1.0000

            IN - OUT =           0.0000              IN - OUT =           0.0000

 PERCENT DISCREPANCY =           0.00     PERCENT DISCREPANCY =           0.00






          TIME SUMMARY AT END OF TIME STEP   1 IN STRESS PERIOD    5
                    SECONDS     MINUTES      HOURS       DAYS        YEARS
                    -----------------------------------------------------------
   TIME STEP LENGTH  172.80      2.8800     4.80000E-02 2.00000E-03 5.47570E-06
 STRESS PERIOD TIME  172.80      2.8800     4.80000E-02 2.00000E-03 5.47570E-06
         TOTAL TIME  864.00      14.400     0.24000     1.00000E-02 2.73785E-05
1
1
                            STRESS PERIOD NO.    6, LENGTH =  0.2000000E-02
                            -----------------------------------------------

                              NUMBER OF TIME STEPS =     1

                               MULTIPLIER FOR DELT =     1.000

                            INITIAL TIME STEP SIZE =  0.2000000E-02

 WELL NO.  LAYER   ROW   COL   STRESS RATE         
 --------------------------------------------------
      1      1      1      1       1.000    

      1 WELL
 
 SOLVING FOR HEAD 

 OUTPUT CONTROL FOR STRESS PERIOD    6   TIME STEP   1
    SAVE HEAD FOR ALL LAYERS
    SAVE BUDGET
 UBDSV1 SAVING "         STORAGE" ON UNIT  31 AT TIME STEP  1, STRESS PERIOD   6
 UBDSV2 SAVING "   CONSTANT HEAD" ON UNIT  31 AT TIME STEP  1, STRESS PERIOD   6
 UBDSV1 SAVING "FLOW RIGHT FACE " ON UNIT  31 AT TIME STEP  1, STRESS PERIOD   6
 UBDSV4 SAVING "           WELLS" ON UNIT  31 AT TIME STEP  1, STRESS PERIOD   6

 SAVING SATURATED THICKNESS AND FLOW TERMS ON UNIT  333 FOR MT3DMS
 BY THE LINK-MT3DMS PACKAGE V6.3 AT TIME STEP    1, STRESS PERIOD    6


 HEAD WILL BE SAVED ON UNIT   30 AT END OF TIME STEP   1, STRESS PERIOD    6
1
  VOLUMETRIC BUDGET FOR ENTIRE MODEL AT END OF TIME STEP  1 IN STRESS PERIOD   6
  ------------------------------------------------------------------------------

     CUMULATIVE VOLUMES      L**3       RATES FOR THIS TIME STEP      L**3/T
     ------------------                 ------------------------

           IN:                                      IN:
           ---                                      ---
             STORAGE =       5.7997E-15               STORAGE =       5.7997E-13
       CONSTANT HEAD =           0.0000         CONSTANT HEAD =           0.0000
               WELLS =       1.2000E-02                 WELLS =           1.0000

            TOTAL IN =       1.2000E-02              TOTAL IN =           1.0000

          OUT:                                     OUT:
          ----                                     ----
             STORAGE =       6.0521E-15               STORAGE =       6.0521E-13
       CONSTANT HEAD =       1.2000E-02         CONSTANT HEAD =           1.0000
               WELLS =           0.0000                 WELLS =           0.0000

           TOTAL OUT =       1.2000E-02             TOTAL OUT =           1.0000

            IN - OUT =           0.0000              IN - OUT =           0.0000

 PERCENT DISCREPANCY =           0.00     PERCENT DISCREPANCY =           0.00






          TIME SUMMARY AT END OF TIME STEP   1 IN STRESS PERIOD    6
                    SECONDS     MINUTES      HOURS       DAYS        YEARS
                    -----------------------------------------------------------
   TIME STEP LENGTH  172.80      2.8800     4.80000E-02 2.00000E-03 5.47570E-06
 STRESS PERIOD TIME  172.80      2.8800     4.80000E-02 2.00000E-03 5.47570E-06
         TOTAL TIME  1036.8      17.280     0.28800     1.20000E-02 3.28542E-05
1
1
                            STRESS PERIOD NO.    7, LENGTH =  0.2000000E-02
                            -----------------------------------------------

                              NUMBER OF TIME STEPS =     1

                               MULTIPLIER FOR DELT =     1.000

                            INITIAL TIME STEP SIZE =  0.2000000E-02

 WELL NO.  LAYER   ROW   COL   STRESS RATE         
 --------------------------------------------------
      1      1      1      1       1.000    

      1 WELL
 
 SOLVING FOR HEAD 

 OUTPUT CONTROL FOR STRESS PERIOD    7   TIME STEP   1
    SAVE HEAD FOR ALL LAYERS
    SAVE BUDGET
 UBDSV1 SAVING "         STORAGE" ON UNIT  31 AT TIME STEP  1, STRESS PERIOD   7
 UBDSV2 SAVING "   CONSTANT HEAD" ON UNIT  31 AT TIME STEP  1, STRESS PERIOD   7
 UBDSV1 SAVING "FLOW RIGHT FACE " ON UNIT  31 AT TIME STEP  1, STRESS PERIOD   7
 UBDSV4 SAVING "           WELLS" ON UNIT  31 AT TIME STEP  1, STRESS PERIOD   7

 SAVING SATURATED THICKNESS AND FLOW TERMS ON UNIT  333 FOR MT3DMS
 BY THE LINK-MT3DMS PACKAGE V6.3 AT TIME STEP    1, STRESS PERIOD    7


 HEAD WILL BE SAVED ON UNIT   30 AT END OF TIME STEP   1, STRESS PERIOD    7
1
  VOLUMETRIC BUDGET FOR ENTIRE MODEL AT END OF TIME STEP  1 IN STRESS PERIOD   7
  ------------------------------------------------------------------------------

     CUMULATIVE VOLUMES      L**3       RATES FOR THIS TIME STEP      L**3/T
     ------------------                 ------------------------

           IN:                                      IN:
           ---                                      ---
             STORAGE =       6.9596E-15               STORAGE =       5.7997E-13
       CONSTANT HEAD =           0.0000         CONSTANT HEAD =           0.0000
               WELLS =       1.4000E-02                 WELLS =           1.0000

            TOTAL IN =       1.4000E-02              TOTAL IN =           1.0000

          OUT:                                     OUT:
          ----                                     ----
             STORAGE =       7.2626E-15               STORAGE =       6.0521E-13
       CONSTANT HEAD =       1.4000E-02         CONSTANT HEAD =           1.0000
               WELLS =           0.0000                 WELLS =           0.0000

           TOTAL OUT =       1.4000E-02             TOTAL OUT =           1.0000

            IN - OUT =           0.0000              IN - OUT =           0.0000

 PERCENT DISCREPANCY =           0.00     PERCENT DISCREPANCY =           0.00






          TIME SUMMARY AT END OF TIME STEP   1 IN STRESS PERIOD    7
                    SECONDS     MINUTES      HOURS       DAYS        YEARS
                    -----------------------------------------------------------
   TIME STEP LENGTH  172.80      2.8800     4.80000E-02 2.00000E-03 5.47570E-06
 STRESS PERIOD TIME  172.80      2.8800     4.80000E-02 2.00000E-03 5.47570E-06
         TOTAL TIME  1209.6      20.160     0.33600     1.40000E-02 3.83299E-05
1
1
                            STRESS PERIOD NO.    8, LENGTH =  0.2000000E-02
                            -----------------------------------------------

                              NUMBER OF TIME STEPS =     1

                               MULTIPLIER FOR DELT =     1.000

                            INITIAL TIME STEP SIZE =  0.2000000E-02

 WELL NO.  LAYER   ROW   COL   STRESS RATE         
 --------------------------------------------------
      1      1      1      1       1.000    

      1 WELL
 
 SOLVING FOR HEAD 

 OUTPUT CONTROL FOR STRESS PERIOD    8   TIME STEP   1
    SAVE HEAD FOR ALL LAYERS
    SAVE BUDGET
 UBDSV1 SAVING "         STORAGE" ON UNIT  31 AT TIME STEP  1, STRESS PERIOD   8
 UBDSV2 SAVING "   CONSTANT HEAD" ON UNIT  31 AT TIME STEP  1, STRESS PERIOD   8
 UBDSV1 SAVING "FLOW RIGHT FACE " ON UNIT  31 AT TIME STEP  1, STRESS PERIOD   8
 UBDSV4 SAVING "           WELLS" ON UNIT  31 AT TIME STEP  1, STRESS PERIOD   8

 SAVING SATURATED THICKNESS AND FLOW TERMS ON UNIT  333 FOR MT3DMS
 BY THE LINK-MT3DMS PACKAGE V6.3 AT TIME STEP    1, STRESS PERIOD    8


 HEAD WILL BE SAVED ON UNIT   30 AT END OF TIME STEP   1, STRESS PERIOD    8
1
  VOLUMETRIC BUDGET FOR ENTIRE MODEL AT END OF TIME STEP  1 IN STRESS PERIOD   8
  ------------------------------------------------------------------------------

     CUMULATIVE VOLUMES      L**3       RATES FOR THIS TIME STEP      L**3/T
     ------------------                 ------------------------

           IN:                                      IN:
           ---                                      ---
             STORAGE =       8.1195E-15               STORAGE =       5.7997E-13
       CONSTANT HEAD =           0.0000         CONSTANT HEAD =           0.0000
               WELLS =       1.6000E-02                 WELLS =           1.0000

            TOTAL IN =       1.6000E-02              TOTAL IN =           1.0000

          OUT:                                     OUT:
          ----                                     ----
             STORAGE =       8.4730E-15               STORAGE =       6.0521E-13
       CONSTANT HEAD =       1.6000E-02         CONSTANT HEAD =           1.0000
               WELLS =           0.0000                 WELLS =           0.0000

           TOTAL OUT =       1.6000E-02             TOTAL OUT =           1.0000

            IN - OUT =           0.0000              IN - OUT =           0.0000

 PERCENT DISCREPANCY =           0.00     PERCENT DISCREPANCY =           0.00






          TIME SUMMARY AT END OF TIME STEP   1 IN STRESS PERIOD    8
                    SECONDS     MINUTES      HOURS       DAYS        YEARS
                    -----------------------------------------------------------
   TIME STEP LENGTH  172.80      2.8800     4.80000E-02 2.00000E-03 5.47570E-06
 STRESS PERIOD TIME  172.80      2.8800     4.80000E-02 2.00000E-03 5.47570E-06
         TOTAL TIME  1382.4      23.040     0.38400     1.60000E-02 4.38056E-05
1
1
                            STRESS PERIOD NO.    9, LENGTH =  0.2000000E-02
                            -----------------------------------------------

                              NUMBER OF TIME STEPS =     1

                               MULTIPLIER FOR DELT =     1.000

                            INITIAL TIME STEP SIZE =  0.2000000E-02

 WELL NO.  LAYER   ROW   COL   STRESS RATE         
 --------------------------------------------------
      1      1      1      1       1.000    

      1 WELL
 
 SOLVING FOR HEAD 

 OUTPUT CONTROL FOR STRESS PERIOD    9   TIME STEP   1
    SAVE HEAD FOR ALL LAYERS
    SAVE BUDGET
 UBDSV1 SAVING "         STORAGE" ON UNIT  31 AT TIME STEP  1, STRESS PERIOD   9
 UBDSV2 SAVING "   CONSTANT HEAD" ON UNIT  31 AT TIME STEP  1, STRESS PERIOD   9
 UBDSV1 SAVING "FLOW RIGHT FACE " ON UNIT  31 AT TIME STEP  1, STRESS PERIOD   9
 UBDSV4 SAVING "           WELLS" ON UNIT  31 AT TIME STEP  1, STRESS PERIOD   9

 SAVING SATURATED THICKNESS AND FLOW TERMS ON UNIT  333 FOR MT3DMS
 BY THE LINK-MT3DMS PACKAGE V6.3 AT TIME STEP    1, STRESS PERIOD    9


 HEAD WILL BE SAVED ON UNIT   30 AT END OF TIME STEP   1, STRESS PERIOD    9
1
  VOLUMETRIC BUDGET FOR ENTIRE MODEL AT END OF TIME STEP  1 IN STRESS PERIOD   9
  ------------------------------------------------------------------------------

     CUMULATIVE VOLUMES      L**3       RATES FOR THIS TIME STEP      L**3/T
     ------------------                 ------------------------

           IN:                                      IN:
           ---                                      ---
             STORAGE =       9.2795E-15               STORAGE =       5.7997E-13
       CONSTANT HEAD =           0.0000         CONSTANT HEAD =           0.0000
               WELLS =       1.8000E-02                 WELLS =           1.0000

            TOTAL IN =       1.8000E-02              TOTAL IN =           1.0000

          OUT:                                     OUT:
          ----                                     ----
             STORAGE =       9.6834E-15               STORAGE =       6.0521E-13
       CONSTANT HEAD =       1.8000E-02         CONSTANT HEAD =           1.0000
               WELLS =           0.0000                 WELLS =           0.0000

           TOTAL OUT =       1.8000E-02             TOTAL OUT =           1.0000

            IN - OUT =           0.0000              IN - OUT =           0.0000

 PERCENT DISCREPANCY =           0.00     PERCENT DISCREPANCY =           0.00






          TIME SUMMARY AT END OF TIME STEP   1 IN STRESS PERIOD    9
                    SECONDS     MINUTES      HOURS       DAYS        YEARS
                    -----------------------------------------------------------
   TIME STEP LENGTH  172.80      2.8800     4.80000E-02 2.00000E-03 5.47570E-06
 STRESS PERIOD TIME  172.80      2.8800     4.80000E-02 2.00000E-03 5.47570E-06
         TOTAL TIME  1555.2      25.920     0.43200     1.80000E-02 4.92813E-05
1
1
                            STRESS PERIOD NO.   10, LENGTH =  0.2000000E-02
                            -----------------------------------------------

                              NUMBER OF TIME STEPS =     1

                               MULTIPLIER FOR DELT =     1.000

                            INITIAL TIME STEP SIZE =  0.2000000E-02

 WELL NO.  LAYER   ROW   COL   STRESS RATE         
 --------------------------------------------------
      1      1      1      1       1.000    

      1 WELL
 
 SOLVING FOR HEAD 

 OUTPUT CONTROL FOR STRESS PERIOD   10   TIME STEP   1
    SAVE HEAD FOR ALL LAYERS
    SAVE BUDGET
 UBDSV1 SAVING "         STORAGE" ON UNIT  31 AT TIME STEP  1, STRESS PERIOD  10
 UBDSV2 SAVING "   CONSTANT HEAD" ON UNIT  31 AT TIME STEP  1, STRESS PERIOD  10
 UBDSV1 SAVING "FLOW RIGHT FACE " ON UNIT  31 AT TIME STEP  1, STRESS PERIOD  10
 UBDSV4 SAVING "           WELLS" ON UNIT  31 AT TIME STEP  1, STRESS PERIOD  10

 SAVING SATURATED THICKNESS AND FLOW TERMS ON UNIT  333 FOR MT3DMS
 BY THE LINK-MT3DMS PACKAGE V6.3 AT TIME STEP    1, STRESS PERIOD   10


 HEAD WILL BE SAVED ON UNIT   30 AT END OF TIME STEP   1, STRESS PERIOD   10
1
  VOLUMETRIC BUDGET FOR ENTIRE MODEL AT END OF TIME STEP  1 IN STRESS PERIOD  10
  ------------------------------------------------------------------------------

     CUMULATIVE VOLUMES      L**3       RATES FOR THIS TIME STEP      L**3/T
     ------------------                 ------------------------

           IN:                                      IN:
           ---                                      ---
             STORAGE =       1.0439E-14               STORAGE =       5.7997E-13
       CONSTANT HEAD =           0.0000         CONSTANT HEAD =           0.0000
               WELLS =       2.0000E-02                 WELLS =           1.0000

            TOTAL IN =       2.0000E-02              TOTAL IN =           1.0000

          OUT:                                     OUT:
          ----                                     ----
             STORAGE =       1.0894E-14               STORAGE =       6.0521E-13
       CONSTANT HEAD =       2.0000E-02         CONSTANT HEAD =           1.0000
               WELLS =           0.0000                 WELLS =           0.0000

           TOTAL OUT =       2.0000E-02             TOTAL OUT =           1.0000

            IN - OUT =           0.0000              IN - OUT =           0.0000

 PERCENT DISCREPANCY =           0.00     PERCENT DISCREPANCY =           0.00






          TIME SUMMARY AT END OF TIME STEP   1 IN STRESS PERIOD   10
                    SECONDS     MINUTES      HOURS       DAYS        YEARS
                    -----------------------------------------------------------
   TIME STEP LENGTH  172.80      2.8800     4.80000E-02 2.00000E-03 5.47570E-06
 STRESS PERIOD TIME  172.80      2.8800     4.80000E-02 2.00000E-03 5.47570E-06
         TOTAL TIME  1728.0      28.800     0.48000     2.00000E-02 5.47570E-05
1
1
                            STRESS PERIOD NO.   11, LENGTH =  0.2000000E-02
                            -----------------------------------------------

                              NUMBER OF TIME STEPS =     1

                               MULTIPLIER FOR DELT =     1.000

                            INITIAL TIME STEP SIZE =  0.2000000E-02

 WELL NO.  LAYER   ROW   COL   STRESS RATE         
 --------------------------------------------------
      1      1      1      1       1.000    

      1 WELL
 
 SOLVING FOR HEAD 

 OUTPUT CONTROL FOR STRESS PERIOD   11   TIME STEP   1
    SAVE HEAD FOR ALL LAYERS
    SAVE BUDGET
 UBDSV1 SAVING "         STORAGE" ON UNIT  31 AT TIME STEP  1, STRESS PERIOD  11
 UBDSV2 SAVING "   CONSTANT HEAD" ON UNIT  31 AT TIME STEP  1, STRESS PERIOD  11
 UBDSV1 SAVING "FLOW RIGHT FACE " ON UNIT  31 AT TIME STEP  1, STRESS PERIOD  11
 UBDSV4 SAVING "           WELLS" ON UNIT  31 AT TIME STEP  1, STRESS PERIOD  11

 SAVING SATURATED THICKNESS AND FLOW TERMS ON UNIT  333 FOR MT3DMS
 BY THE LINK-MT3DMS PACKAGE V6.3 AT TIME STEP    1, STRESS PERIOD   11


 HEAD WILL BE SAVED ON UNIT   30 AT END OF TIME STEP   1, STRESS PERIOD   11
1
  VOLUMETRIC BUDGET FOR ENTIRE MODEL AT END OF TIME STEP  1 IN STRESS PERIOD  11
  ------------------------------------------------------------------------------

     CUMULATIVE VOLUMES      L**3       RATES FOR THIS TIME STEP      L**3/T
     ------------------                 ------------------------

           IN:                                      IN:
           ---                                      ---
             STORAGE =       1.1599E-14               STORAGE =       5.7997E-13
       CONSTANT HEAD =           0.0000         CONSTANT HEAD =           0.0000
               WELLS =       2.2000E-02                 WELLS =           1.0000

            TOTAL IN =       2.2000E-02              TOTAL IN =           1.0000

          OUT:                                     OUT:
          ----                                     ----
             STORAGE =       1.2104E-14               STORAGE =       6.0521E-13
       CONSTANT HEAD =       2.2000E-02         CONSTANT HEAD =           1.0000
               WELLS =           0.0000                 WELLS =           0.0000

           TOTAL OUT =       2.2000E-02             TOTAL OUT =           1.0000

            IN - OUT =           0.0000              IN - OUT =           0.0000

 PERCENT DISCREPANCY =           0.00     PERCENT DISCREPANCY =           0.00






          TIME SUMMARY AT END OF TIME STEP   1 IN STRESS PERIOD   11
                    SECONDS     MINUTES      HOURS       DAYS        YEARS
                    -----------------------------------------------------------
   TIME STEP LENGTH  172.80      2.8800     4.80000E-02 2.00000E-03 5.47570E-06
 STRESS PERIOD TIME  172.80      2.8800     4.80000E-02 2.00000E-03 5.47570E-06
         TOTAL TIME  1900.8      31.680     0.52800     2.20000E-02 6.02327E-05
1
1
                            STRESS PERIOD NO.   12, LENGTH =  0.2000000E-02
                            -----------------------------------------------

                              NUMBER OF TIME STEPS =     1

                               MULTIPLIER FOR DELT =     1.000

                            INITIAL TIME STEP SIZE =  0.2000000E-02

 WELL NO.  LAYER   ROW   COL   STRESS RATE         
 --------------------------------------------------
      1      1      1      1       1.000    

      1 WELL
 
 SOLVING FOR HEAD 

 OUTPUT CONTROL FOR STRESS PERIOD   12   TIME STEP   1
    SAVE HEAD FOR ALL LAYERS
    SAVE BUDGET
 UBDSV1 SAVING "         STORAGE" ON UNIT  31 AT TIME STEP  1, STRESS PERIOD  12
 UBDSV2 SAVING "   CONSTANT HEAD" ON UNIT  31 AT TIME STEP  1, STRESS PERIOD  12
 UBDSV1 SAVING "FLOW RIGHT FACE " ON UNIT  31 AT TIME STEP  1, STRESS PERIOD  12
 UBDSV4 SAVING "           WELLS" ON UNIT  31 AT TIME STEP  1, STRESS PERIOD  12

 SAVING SATURATED THICKNESS AND FLOW TERMS ON UNIT  333 FOR MT3DMS
 BY THE LINK-MT3DMS PACKAGE V6.3 AT TIME STEP    1, STRESS PERIOD   12


 HEAD WILL BE SAVED ON UNIT   30 AT END OF TIME STEP   1, STRESS PERIOD   12
1
  VOLUMETRIC BUDGET FOR ENTIRE MODEL AT END OF TIME STEP  1 IN STRESS PERIOD  12
  ------------------------------------------------------------------------------

     CUMULATIVE VOLUMES      L**3       RATES FOR THIS TIME STEP      L**3/T
     ------------------                 ------------------------

           IN:                                      IN:
           ---                                      ---
             STORAGE =       1.2759E-14               STORAGE =       5.7997E-13
       CONSTANT HEAD =           0.0000         CONSTANT HEAD =           0.0000
               WELLS =       2.4000E-02                 WELLS =           1.0000

            TOTAL IN =       2.4000E-02              TOTAL IN =           1.0000

          OUT:                                     OUT:
          ----                                     ----
             STORAGE =       1.3315E-14               STORAGE =       6.0521E-13
       CONSTANT HEAD =       2.4000E-02         CONSTANT HEAD =           1.0000
               WELLS =           0.0000                 WELLS =           0.0000

           TOTAL OUT =       2.4000E-02             TOTAL OUT =           1.0000

            IN - OUT =           0.0000              IN - OUT =           0.0000

 PERCENT DISCREPANCY =           0.00     PERCENT DISCREPANCY =           0.00






          TIME SUMMARY AT END OF TIME STEP   1 IN STRESS PERIOD   12
                    SECONDS     MINUTES      HOURS       DAYS        YEARS
                    -----------------------------------------------------------
   TIME STEP LENGTH  172.80      2.8800     4.80000E-02 2.00000E-03 5.47570E-06
 STRESS PERIOD TIME  172.80      2.8800     4.80000E-02 2.00000E-03 5.47570E-06
         TOTAL TIME  2073.6      34.560     0.57600     2.40000E-02 6.57084E-05
1
1
                            STRESS PERIOD NO.   13, LENGTH =  0.2000000E-02
                            -----------------------------------------------

                              NUMBER OF TIME STEPS =     1

                               MULTIPLIER FOR DELT =     1.000

                            INITIAL TIME STEP SIZE =  0.2000000E-02

 WELL NO.  LAYER   ROW   COL   STRESS RATE         
 --------------------------------------------------
      1      1      1      1       1.000    

      1 WELL
 
 SOLVING FOR HEAD 

 OUTPUT CONTROL FOR STRESS PERIOD   13   TIME STEP   1
    SAVE HEAD FOR ALL LAYERS
    SAVE BUDGET
 UBDSV1 SAVING "         STORAGE" ON UNIT  31 AT TIME STEP  1, STRESS PERIOD  13
 UBDSV2 SAVING "   CONSTANT HEAD" ON UNIT  31 AT TIME STEP  1, STRESS PERIOD  13
 UBDSV1 SAVING "FLOW RIGHT FACE " ON UNIT  31 AT TIME STEP  1, STRESS PERIOD  13
 UBDSV4 SAVING "           WELLS" ON UNIT  31 AT TIME STEP  1, STRESS PERIOD  13

 SAVING SATURATED THICKNESS AND FLOW TERMS ON UNIT  333 FOR MT3DMS
 BY THE LINK-MT3DMS PACKAGE V6.3 AT TIME STEP    1, STRESS PERIOD   13


 HEAD WILL BE SAVED ON UNIT   30 AT END OF TIME STEP   1, STRESS PERIOD   13
1
  VOLUMETRIC BUDGET FOR ENTIRE MODEL AT END OF TIME STEP  1 IN STRESS PERIOD  13
  ------------------------------------------------------------------------------

     CUMULATIVE VOLUMES      L**3       RATES FOR THIS TIME STEP      L**3/T
     ------------------                 ------------------------

           IN:                                      IN:
           ---                                      ---
             STORAGE =       1.3919E-14               STORAGE =       5.7997E-13
       CONSTANT HEAD =           0.0000         CONSTANT HEAD =           0.0000
               WELLS =       2.6000E-02                 WELLS =           1.0000

            TOTAL IN =       2.6000E-02              TOTAL IN =           1.0000

          OUT:                                     OUT:
          ----                                     ----
             STORAGE =       1.4525E-14               STORAGE =       6.0521E-13
       CONSTANT HEAD =       2.6000E-02         CONSTANT HEAD =           1.0000
               WELLS =           0.0000                 WELLS =           0.0000

           TOTAL OUT =       2.6000E-02             TOTAL OUT =           1.0000

            IN - OUT =           0.0000              IN - OUT =           0.0000

 PERCENT DISCREPANCY =           0.00     PERCENT DISCREPANCY =           0.00






          TIME SUMMARY AT END OF TIME STEP   1 IN STRESS PERIOD   13
                    SECONDS     MINUTES      HOURS       DAYS        YEARS
                    -----------------------------------------------------------
   TIME STEP LENGTH  172.80      2.8800     4.80000E-02 2.00000E-03 5.47570E-06
 STRESS PERIOD TIME  172.80      2.8800     4.80000E-02 2.00000E-03 5.47570E-06
         TOTAL TIME  2246.4      37.440     0.62400     2.60000E-02 7.11841E-05
1
1
                            STRESS PERIOD NO.   14, LENGTH =  0.2000000E-02
                            -----------------------------------------------

                              NUMBER OF TIME STEPS =     1

                               MULTIPLIER FOR DELT =     1.000

                            INITIAL TIME STEP SIZE =  0.2000000E-02

 WELL NO.  LAYER   ROW   COL   STRESS RATE         
 --------------------------------------------------
      1      1      1      1       1.000    

      1 WELL
 
 SOLVING FOR HEAD 

 OUTPUT CONTROL FOR STRESS PERIOD   14   TIME STEP   1
    SAVE HEAD FOR ALL LAYERS
    SAVE BUDGET
 UBDSV1 SAVING "         STORAGE" ON UNIT  31 AT TIME STEP  1, STRESS PERIOD  14
 UBDSV2 SAVING "   CONSTANT HEAD" ON UNIT  31 AT TIME STEP  1, STRESS PERIOD  14
 UBDSV1 SAVING "FLOW RIGHT FACE " ON UNIT  31 AT TIME STEP  1, STRESS PERIOD  14
 UBDSV4 SAVING "           WELLS" ON UNIT  31 AT TIME STEP  1, STRESS PERIOD  14

 SAVING SATURATED THICKNESS AND FLOW TERMS ON UNIT  333 FOR MT3DMS
 BY THE LINK-MT3DMS PACKAGE V6.3 AT TIME STEP    1, STRESS PERIOD   14


 HEAD WILL BE SAVED ON UNIT   30 AT END OF TIME STEP   1, STRESS PERIOD   14
1
  VOLUMETRIC BUDGET FOR ENTIRE MODEL AT END OF TIME STEP  1 IN STRESS PERIOD  14
  ------------------------------------------------------------------------------

     CUMULATIVE VOLUMES      L**3       RATES FOR THIS TIME STEP      L**3/T
     ------------------                 ------------------------

           IN:                                      IN:
           ---                                      ---
             STORAGE =       1.5079E-14               STORAGE =       5.7997E-13
       CONSTANT HEAD =           0.0000         CONSTANT HEAD =           0.0000
               WELLS =       2.8000E-02                 WELLS =           1.0000

            TOTAL IN =       2.8000E-02              TOTAL IN =           1.0000

          OUT:                                     OUT:
          ----                                     ----
             STORAGE =       1.5736E-14               STORAGE =       6.0521E-13
       CONSTANT HEAD =       2.8000E-02         CONSTANT HEAD =           1.0000
               WELLS =           0.0000                 WELLS =           0.0000

           TOTAL OUT =       2.8000E-02             TOTAL OUT =           1.0000

            IN - OUT =           0.0000              IN - OUT =           0.0000

 PERCENT DISCREPANCY =           0.00     PERCENT DISCREPANCY =           0.00






          TIME SUMMARY AT END OF TIME STEP   1 IN STRESS PERIOD   14
                    SECONDS     MINUTES      HOURS       DAYS        YEARS
                    -----------------------------------------------------------
   TIME STEP LENGTH  172.80      2.8800     4.80000E-02 2.00000E-03 5.47570E-06
 STRESS PERIOD TIME  172.80      2.8800     4.80000E-02 2.00000E-03 5.47570E-06
         TOTAL TIME  2419.2      40.320     0.67200     2.80000E-02 7.66598E-05
1
1
                            STRESS PERIOD NO.   15, LENGTH =  0.2000000E-02
                            -----------------------------------------------

                              NUMBER OF TIME STEPS =     1

                               MULTIPLIER FOR DELT =     1.000

                            INITIAL TIME STEP SIZE =  0.2000000E-02

 WELL NO.  LAYER   ROW   COL   STRESS RATE         
 --------------------------------------------------
      1      1      1      1       1.000    

      1 WELL
 
 SOLVING FOR HEAD 

 OUTPUT CONTROL FOR STRESS PERIOD   15   TIME STEP   1
    SAVE HEAD FOR ALL LAYERS
    SAVE BUDGET
 UBDSV1 SAVING "         STORAGE" ON UNIT  31 AT TIME STEP  1, STRESS PERIOD  15
 UBDSV2 SAVING "   CONSTANT HEAD" ON UNIT  31 AT TIME STEP  1, STRESS PERIOD  15
 UBDSV1 SAVING "FLOW RIGHT FACE " ON UNIT  31 AT TIME STEP  1, STRESS PERIOD  15
 UBDSV4 SAVING "           WELLS" ON UNIT  31 AT TIME STEP  1, STRESS PERIOD  15

 SAVING SATURATED THICKNESS AND FLOW TERMS ON UNIT  333 FOR MT3DMS
 BY THE LINK-MT3DMS PACKAGE V6.3 AT TIME STEP    1, STRESS PERIOD   15


 HEAD WILL BE SAVED ON UNIT   30 AT END OF TIME STEP   1, STRESS PERIOD   15
1
  VOLUMETRIC BUDGET FOR ENTIRE MODEL AT END OF TIME STEP  1 IN STRESS PERIOD  15
  ------------------------------------------------------------------------------

     CUMULATIVE VOLUMES      L**3       RATES FOR THIS TIME STEP      L**3/T
     ------------------                 ------------------------

           IN:                                      IN:
           ---                                      ---
             STORAGE =       1.6239E-14               STORAGE =       5.7997E-13
       CONSTANT HEAD =           0.0000         CONSTANT HEAD =           0.0000
               WELLS =       3.0000E-02                 WELLS =           1.0000

            TOTAL IN =       3.0000E-02              TOTAL IN =           1.0000

          OUT:                                     OUT:
          ----                                     ----
             STORAGE =       1.6946E-14               STORAGE =       6.0521E-13
       CONSTANT HEAD =       3.0000E-02         CONSTANT HEAD =           1.0000
               WELLS =           0.0000                 WELLS =           0.0000

           TOTAL OUT =       3.0000E-02             TOTAL OUT =           1.0000

            IN - OUT =           0.0000              IN - OUT =           0.0000

 PERCENT DISCREPANCY =           0.00     PERCENT DISCREPANCY =           0.00






          TIME SUMMARY AT END OF TIME STEP   1 IN STRESS PERIOD   15
                    SECONDS     MINUTES      HOURS       DAYS        YEARS
                    -----------------------------------------------------------
   TIME STEP LENGTH  172.80      2.8800     4.80000E-02 2.00000E-03 5.47570E-06
 STRESS PERIOD TIME  172.80      2.8800     4.80000E-02 2.00000E-03 5.47570E-06
         TOTAL TIME  2592.0      43.200     0.72000     3.00000E-02 8.21355E-05
1
1
                            STRESS PERIOD NO.   16, LENGTH =  0.2000000E-02
                            -----------------------------------------------

                              NUMBER OF TIME STEPS =     1

                               MULTIPLIER FOR DELT =     1.000

                            INITIAL TIME STEP SIZE =  0.2000000E-02

 WELL NO.  LAYER   ROW   COL   STRESS RATE         
 --------------------------------------------------
      1      1      1      1       1.000    

      1 WELL
 
 SOLVING FOR HEAD 

 OUTPUT CONTROL FOR STRESS PERIOD   16   TIME STEP   1
    SAVE HEAD FOR ALL LAYERS
    SAVE BUDGET
 UBDSV1 SAVING "         STORAGE" ON UNIT  31 AT TIME STEP  1, STRESS PERIOD  16
 UBDSV2 SAVING "   CONSTANT HEAD" ON UNIT  31 AT TIME STEP  1, STRESS PERIOD  16
 UBDSV1 SAVING "FLOW RIGHT FACE " ON UNIT  31 AT TIME STEP  1, STRESS PERIOD  16
 UBDSV4 SAVING "           WELLS" ON UNIT  31 AT TIME STEP  1, STRESS PERIOD  16

 SAVING SATURATED THICKNESS AND FLOW TERMS ON UNIT  333 FOR MT3DMS
 BY THE LINK-MT3DMS PACKAGE V6.3 AT TIME STEP    1, STRESS PERIOD   16


 HEAD WILL BE SAVED ON UNIT   30 AT END OF TIME STEP   1, STRESS PERIOD   16
1
  VOLUMETRIC BUDGET FOR ENTIRE MODEL AT END OF TIME STEP  1 IN STRESS PERIOD  16
  ------------------------------------------------------------------------------

     CUMULATIVE VOLUMES      L**3       RATES FOR THIS TIME STEP      L**3/T
     ------------------                 ------------------------

           IN:                                      IN:
           ---                                      ---
             STORAGE =       1.7399E-14               STORAGE =       5.7997E-13
       CONSTANT HEAD =           0.0000         CONSTANT HEAD =           0.0000
               WELLS =       3.2000E-02                 WELLS =           1.0000

            TOTAL IN =       3.2000E-02              TOTAL IN =           1.0000

          OUT:                                     OUT:
          ----                                     ----
             STORAGE =       1.8156E-14               STORAGE =       6.0521E-13
       CONSTANT HEAD =       3.2000E-02         CONSTANT HEAD =           1.0000
               WELLS =           0.0000                 WELLS =           0.0000

           TOTAL OUT =       3.2000E-02             TOTAL OUT =           1.0000

            IN - OUT =           0.0000              IN - OUT =           0.0000

 PERCENT DISCREPANCY =           0.00     PERCENT DISCREPANCY =           0.00






          TIME SUMMARY AT END OF TIME STEP   1 IN STRESS PERIOD   16
                    SECONDS     MINUTES      HOURS       DAYS        YEARS
                    -----------------------------------------------------------
   TIME STEP LENGTH  172.80      2.8800     4.80000E-02 2.00000E-03 5.47570E-06
 STRESS PERIOD TIME  172.80      2.8800     4.80000E-02 2.00000E-03 5.47570E-06
         TOTAL TIME  2764.8      46.080     0.76800     3.20000E-02 8.76112E-05
1
1
                            STRESS PERIOD NO.   17, LENGTH =  0.2000000E-02
                            -----------------------------------------------

                              NUMBER OF TIME STEPS =     1

                               MULTIPLIER FOR DELT =     1.000

                            INITIAL TIME STEP SIZE =  0.2000000E-02

 WELL NO.  LAYER   ROW   COL   STRESS RATE         
 --------------------------------------------------
      1      1      1      1       1.000    

      1 WELL
 
 SOLVING FOR HEAD 

 OUTPUT CONTROL FOR STRESS PERIOD   17   TIME STEP   1
    SAVE HEAD FOR ALL LAYERS
    SAVE BUDGET
 UBDSV1 SAVING "         STORAGE" ON UNIT  31 AT TIME STEP  1, STRESS PERIOD  17
 UBDSV2 SAVING "   CONSTANT HEAD" ON UNIT  31 AT TIME STEP  1, STRESS PERIOD  17
 UBDSV1 SAVING "FLOW RIGHT FACE " ON UNIT  31 AT TIME STEP  1, STRESS PERIOD  17
 UBDSV4 SAVING "           WELLS" ON UNIT  31 AT TIME STEP  1, STRESS PERIOD  17

 SAVING SATURATED THICKNESS AND FLOW TERMS ON UNIT  333 FOR MT3DMS
 BY THE LINK-MT3DMS PACKAGE V6.3 AT TIME STEP    1, STRESS PERIOD   17


 HEAD WILL BE SAVED ON UNIT   30 AT END OF TIME STEP   1, STRESS PERIOD   17
1
  VOLUMETRIC BUDGET FOR ENTIRE MODEL AT END OF TIME STEP  1 IN STRESS PERIOD  17
  ------------------------------------------------------------------------------

     CUMULATIVE VOLUMES      L**3       RATES FOR THIS TIME STEP      L**3/T
     ------------------                 ------------------------

           IN:                                      IN:
           ---                                      ---
             STORAGE =       1.8559E-14               STORAGE =       5.7997E-13
       CONSTANT HEAD =           0.0000         CONSTANT HEAD =           0.0000
               WELLS =       3.4000E-02                 WELLS =           1.0000

            TOTAL IN =       3.4000E-02              TOTAL IN =           1.0000

          OUT:                                     OUT:
          ----                                     ----
             STORAGE =       1.9367E-14               STORAGE =       6.0521E-13
       CONSTANT HEAD =       3.4000E-02         CONSTANT HEAD =           1.0000
               WELLS =           0.0000                 WELLS =           0.0000

           TOTAL OUT =       3.4000E-02             TOTAL OUT =           1.0000

            IN - OUT =           0.0000              IN - OUT =           0.0000

 PERCENT DISCREPANCY =           0.00     PERCENT DISCREPANCY =           0.00






          TIME SUMMARY AT END OF TIME STEP   1 IN STRESS PERIOD   17
                    SECONDS     MINUTES      HOURS       DAYS        YEARS
                    -----------------------------------------------------------
   TIME STEP LENGTH  172.80      2.8800     4.80000E-02 2.00000E-03 5.47570E-06
 STRESS PERIOD TIME  172.80      2.8800     4.80000E-02 2.00000E-03 5.47570E-06
         TOTAL TIME  2937.6      48.960     0.81600     3.40000E-02 9.30869E-05
1
1
                            STRESS PERIOD NO.   18, LENGTH =  0.2000000E-02
                            -----------------------------------------------

                              NUMBER OF TIME STEPS =     1

                               MULTIPLIER FOR DELT =     1.000

                            INITIAL TIME STEP SIZE =  0.2000000E-02

 WELL NO.  LAYER   ROW   COL   STRESS RATE         
 --------------------------------------------------
      1      1      1      1       1.000    

      1 WELL
 
 SOLVING FOR HEAD 

 OUTPUT CONTROL FOR STRESS PERIOD   18   TIME STEP   1
    SAVE HEAD FOR ALL LAYERS
    SAVE BUDGET
 UBDSV1 SAVING "         STORAGE" ON UNIT  31 AT TIME STEP  1, STRESS PERIOD  18
 UBDSV2 SAVING "   CONSTANT HEAD" ON UNIT  31 AT TIME STEP  1, STRESS PERIOD  18
 UBDSV1 SAVING "FLOW RIGHT FACE " ON UNIT  31 AT TIME STEP  1, STRESS PERIOD  18
 UBDSV4 SAVING "           WELLS" ON UNIT  31 AT TIME STEP  1, STRESS PERIOD  18

 SAVING SATURATED THICKNESS AND FLOW TERMS ON UNIT  333 FOR MT3DMS
 BY THE LINK-MT3DMS PACKAGE V6.3 AT TIME STEP    1, STRESS PERIOD   18


 HEAD WILL BE SAVED ON UNIT   30 AT END OF TIME STEP   1, STRESS PERIOD   18
1
  VOLUMETRIC BUDGET FOR ENTIRE MODEL AT END OF TIME STEP  1 IN STRESS PERIOD  18
  ------------------------------------------------------------------------------

     CUMULATIVE VOLUMES      L**3       RATES FOR THIS TIME STEP      L**3/T
     ------------------                 ------------------------

           IN:                                      IN:
           ---                                      ---
             STORAGE =       1.9719E-14               STORAGE =       5.7997E-13
       CONSTANT HEAD =           0.0000         CONSTANT HEAD =           0.0000
               WELLS =       3.6000E-02                 WELLS =           1.0000

            TOTAL IN =       3.6000E-02              TOTAL IN =           1.0000

          OUT:                                     OUT:
          ----                                     ----
             STORAGE =       2.0577E-14               STORAGE =       6.0521E-13
       CONSTANT HEAD =       3.6000E-02         CONSTANT HEAD =           1.0000
               WELLS =           0.0000                 WELLS =           0.0000

           TOTAL OUT =       3.6000E-02             TOTAL OUT =           1.0000

            IN - OUT =           0.0000              IN - OUT =           0.0000

 PERCENT DISCREPANCY =           0.00     PERCENT DISCREPANCY =           0.00






          TIME SUMMARY AT END OF TIME STEP   1 IN STRESS PERIOD   18
                    SECONDS     MINUTES      HOURS       DAYS        YEARS
                    -----------------------------------------------------------
   TIME STEP LENGTH  172.80      2.8800     4.80000E-02 2.00000E-03 5.47570E-06
 STRESS PERIOD TIME  172.80      2.8800     4.80000E-02 2.00000E-03 5.47570E-06
         TOTAL TIME  3110.4      51.840     0.86400     3.60000E-02 9.85626E-05
1
1
                            STRESS PERIOD NO.   19, LENGTH =  0.2000000E-02
                            -----------------------------------------------

                              NUMBER OF TIME STEPS =     1

                               MULTIPLIER FOR DELT =     1.000

                            INITIAL TIME STEP SIZE =  0.2000000E-02

 WELL NO.  LAYER   ROW   COL   STRESS RATE         
 --------------------------------------------------
      1      1      1      1       1.000    

      1 WELL
 
 SOLVING FOR HEAD 

 OUTPUT CONTROL FOR STRESS PERIOD   19   TIME STEP   1
    SAVE HEAD FOR ALL LAYERS
    SAVE BUDGET
 UBDSV1 SAVING "         STORAGE" ON UNIT  31 AT TIME STEP  1, STRESS PERIOD  19
 UBDSV2 SAVING "   CONSTANT HEAD" ON UNIT  31 AT TIME STEP  1, STRESS PERIOD  19
 UBDSV1 SAVING "FLOW RIGHT FACE " ON UNIT  31 AT TIME STEP  1, STRESS PERIOD  19
 UBDSV4 SAVING "           WELLS" ON UNIT  31 AT TIME STEP  1, STRESS PERIOD  19

 SAVING SATURATED THICKNESS AND FLOW TERMS ON UNIT  333 FOR MT3DMS
 BY THE LINK-MT3DMS PACKAGE V6.3 AT TIME STEP    1, STRESS PERIOD   19


 HEAD WILL BE SAVED ON UNIT   30 AT END OF TIME STEP   1, STRESS PERIOD   19
1
  VOLUMETRIC BUDGET FOR ENTIRE MODEL AT END OF TIME STEP  1 IN STRESS PERIOD  19
  ------------------------------------------------------------------------------

     CUMULATIVE VOLUMES      L**3       RATES FOR THIS TIME STEP      L**3/T
     ------------------                 ------------------------

           IN:                                      IN:
           ---                                      ---
             STORAGE =       2.0879E-14               STORAGE =       5.7997E-13
       CONSTANT HEAD =           0.0000         CONSTANT HEAD =           0.0000
               WELLS =       3.8000E-02                 WELLS =           1.0000

            TOTAL IN =       3.8000E-02              TOTAL IN =           1.0000

          OUT:                                     OUT:
          ----                                     ----
             STORAGE =       2.1788E-14               STORAGE =       6.0521E-13
       CONSTANT HEAD =       3.8000E-02         CONSTANT HEAD =           1.0000
               WELLS =           0.0000                 WELLS =           0.0000

           TOTAL OUT =       3.8000E-02             TOTAL OUT =           1.0000

            IN - OUT =           0.0000              IN - OUT =           0.0000

 PERCENT DISCREPANCY =           0.00     PERCENT DISCREPANCY =           0.00






          TIME SUMMARY AT END OF TIME STEP   1 IN STRESS PERIOD   19
                    SECONDS     MINUTES      HOURS       DAYS        YEARS
                    -----------------------------------------------------------
   TIME STEP LENGTH  172.80      2.8800     4.80000E-02 2.00000E-03 5.47570E-06
 STRESS PERIOD TIME  172.80      2.8800     4.80000E-02 2.00000E-03 5.47570E-06
         TOTAL TIME  3283.2      54.720     0.91200     3.80000E-02 1.04038E-04
1
1
                            STRESS PERIOD NO.   20, LENGTH =  0.2000000E-02
                            -----------------------------------------------

                              NUMBER OF TIME STEPS =     1

                               MULTIPLIER FOR DELT =     1.000

                            INITIAL TIME STEP SIZE =  0.2000000E-02

 WELL NO.  LAYER   ROW   COL   STRESS RATE         
 --------------------------------------------------
      1      1      1      1       1.000    

      1 WELL
 
 SOLVING FOR HEAD 

 OUTPUT CONTROL FOR STRESS PERIOD   20   TIME STEP   1
    SAVE HEAD FOR ALL LAYERS
    SAVE BUDGET
 UBDSV1 SAVING "         STORAGE" ON UNIT  31 AT TIME STEP  1, STRESS PERIOD  20
 UBDSV2 SAVING "   CONSTANT HEAD" ON UNIT  31 AT TIME STEP  1, STRESS PERIOD  20
 UBDSV1 SAVING "FLOW RIGHT FACE " ON UNIT  31 AT TIME STEP  1, STRESS PERIOD  20
 UBDSV4 SAVING "           WELLS" ON UNIT  31 AT TIME STEP  1, STRESS PERIOD  20

 SAVING SATURATED THICKNESS AND FLOW TERMS ON UNIT  333 FOR MT3DMS
 BY THE LINK-MT3DMS PACKAGE V6.3 AT TIME STEP    1, STRESS PERIOD   20


 HEAD WILL BE SAVED ON UNIT   30 AT END OF TIME STEP   1, STRESS PERIOD   20
1
  VOLUMETRIC BUDGET FOR ENTIRE MODEL AT END OF TIME STEP  1 IN STRESS PERIOD  20
  ------------------------------------------------------------------------------

     CUMULATIVE VOLUMES      L**3       RATES FOR THIS TIME STEP      L**3/T
     ------------------                 ------------------------

           IN:                                      IN:
           ---                                      ---
             STORAGE =       2.2039E-14               STORAGE =       5.7997E-13
       CONSTANT HEAD =           0.0000         CONSTANT HEAD =           0.0000
               WELLS =       4.0000E-02                 WELLS =           1.0000

            TOTAL IN =       4.0000E-02              TOTAL IN =           1.0000

          OUT:                                     OUT:
          ----                                     ----
             STORAGE =       2.2998E-14               STORAGE =       6.0521E-13
       CONSTANT HEAD =       4.0000E-02         CONSTANT HEAD =           1.0000
               WELLS =           0.0000                 WELLS =           0.0000

           TOTAL OUT =       4.0000E-02             TOTAL OUT =           1.0000

            IN - OUT =           0.0000              IN - OUT =           0.0000

 PERCENT DISCREPANCY =           0.00     PERCENT DISCREPANCY =           0.00






          TIME SUMMARY AT END OF TIME STEP   1 IN STRESS PERIOD   20
                    SECONDS     MINUTES      HOURS       DAYS        YEARS
                    -----------------------------------------------------------
   TIME STEP LENGTH  172.80      2.8800     4.80000E-02 2.00000E-03 5.47570E-06
 STRESS PERIOD TIME  172.80      2.8800     4.80000E-02 2.00000E-03 5.47570E-06
         TOTAL TIME  3456.0      57.600     0.96000     4.00000E-02 1.09514E-04
1
1
                            STRESS PERIOD NO.   21, LENGTH =  0.2000000E-02
                            -----------------------------------------------

                              NUMBER OF TIME STEPS =     1

                               MULTIPLIER FOR DELT =     1.000

                            INITIAL TIME STEP SIZE =  0.2000000E-02

 WELL NO.  LAYER   ROW   COL   STRESS RATE         
 --------------------------------------------------
      1      1      1      1       1.000    

      1 WELL
 
 SOLVING FOR HEAD 

 OUTPUT CONTROL FOR STRESS PERIOD   21   TIME STEP   1
    SAVE HEAD FOR ALL LAYERS
    SAVE BUDGET
 UBDSV1 SAVING "         STORAGE" ON UNIT  31 AT TIME STEP  1, STRESS PERIOD  21
 UBDSV2 SAVING "   CONSTANT HEAD" ON UNIT  31 AT TIME STEP  1, STRESS PERIOD  21
 UBDSV1 SAVING "FLOW RIGHT FACE " ON UNIT  31 AT TIME STEP  1, STRESS PERIOD  21
 UBDSV4 SAVING "           WELLS" ON UNIT  31 AT TIME STEP  1, STRESS PERIOD  21

 SAVING SATURATED THICKNESS AND FLOW TERMS ON UNIT  333 FOR MT3DMS
 BY THE LINK-MT3DMS PACKAGE V6.3 AT TIME STEP    1, STRESS PERIOD   21


 HEAD WILL BE SAVED ON UNIT   30 AT END OF TIME STEP   1, STRESS PERIOD   21
1
  VOLUMETRIC BUDGET FOR ENTIRE MODEL AT END OF TIME STEP  1 IN STRESS PERIOD  21
  ------------------------------------------------------------------------------

     CUMULATIVE VOLUMES      L**3       RATES FOR THIS TIME STEP      L**3/T
     ------------------                 ------------------------

           IN:                                      IN:
           ---                                      ---
             STORAGE =       2.3199E-14               STORAGE =       5.7997E-13
       CONSTANT HEAD =           0.0000         CONSTANT HEAD =           0.0000
               WELLS =       4.2000E-02                 WELLS =           1.0000

            TOTAL IN =       4.2000E-02              TOTAL IN =           1.0000

          OUT:                                     OUT:
          ----                                     ----
             STORAGE =       2.4209E-14               STORAGE =       6.0521E-13
       CONSTANT HEAD =       4.2000E-02         CONSTANT HEAD =           1.0000
               WELLS =           0.0000                 WELLS =           0.0000

           TOTAL OUT =       4.2000E-02             TOTAL OUT =           1.0000

            IN - OUT =           0.0000              IN - OUT =           0.0000

 PERCENT DISCREPANCY =           0.00     PERCENT DISCREPANCY =           0.00






          TIME SUMMARY AT END OF TIME STEP   1 IN STRESS PERIOD   21
                    SECONDS     MINUTES      HOURS       DAYS        YEARS
                    -----------------------------------------------------------
   TIME STEP LENGTH  172.80      2.8800     4.80000E-02 2.00000E-03 5.47570E-06
 STRESS PERIOD TIME  172.80      2.8800     4.80000E-02 2.00000E-03 5.47570E-06
         TOTAL TIME  3628.8      60.480      1.0080     4.20000E-02 1.14990E-04
1
1
                            STRESS PERIOD NO.   22, LENGTH =  0.2000000E-02
                            -----------------------------------------------

                              NUMBER OF TIME STEPS =     1

                               MULTIPLIER FOR DELT =     1.000

                            INITIAL TIME STEP SIZE =  0.2000000E-02

 WELL NO.  LAYER   ROW   COL   STRESS RATE         
 --------------------------------------------------
      1      1      1      1       1.000    

      1 WELL
 
 SOLVING FOR HEAD 

 OUTPUT CONTROL FOR STRESS PERIOD   22   TIME STEP   1
    SAVE HEAD FOR ALL LAYERS
    SAVE BUDGET
 UBDSV1 SAVING "         STORAGE" ON UNIT  31 AT TIME STEP  1, STRESS PERIOD  22
 UBDSV2 SAVING "   CONSTANT HEAD" ON UNIT  31 AT TIME STEP  1, STRESS PERIOD  22
 UBDSV1 SAVING "FLOW RIGHT FACE " ON UNIT  31 AT TIME STEP  1, STRESS PERIOD  22
[...]

 SAVING SATURATED THICKNESS AND FLOW TERMS ON UNIT  333 FOR MT3DMS
 BY THE LINK-MT3DMS PACKAGE V6.3 AT TIME STEP    1, STRESS PERIOD  114


 HEAD WILL BE SAVED ON UNIT   30 AT END OF TIME STEP   1, STRESS PERIOD  114
1
  VOLUMETRIC BUDGET FOR ENTIRE MODEL AT END OF TIME STEP  1 IN STRESS PERIOD 114
  ------------------------------------------------------------------------------

     CUMULATIVE VOLUMES      L**3       RATES FOR THIS TIME STEP      L**3/T
     ------------------                 ------------------------

           IN:                                      IN:
           ---                                      ---
             STORAGE =       1.3107E-13               STORAGE =       5.7997E-13
       CONSTANT HEAD =           0.0000         CONSTANT HEAD =           0.0000
               WELLS =           0.2280                 WELLS =           1.0000

            TOTAL IN =           0.2280              TOTAL IN =           1.0000

          OUT:                                     OUT:
          ----                                     ----
             STORAGE =       1.3678E-13               STORAGE =       6.0521E-13
       CONSTANT HEAD =           0.2280         CONSTANT HEAD =           1.0000
               WELLS =           0.0000                 WELLS =           0.0000

           TOTAL OUT =           0.2280             TOTAL OUT =           1.0000

            IN - OUT =           0.0000              IN - OUT =           0.0000

 PERCENT DISCREPANCY =           0.00     PERCENT DISCREPANCY =           0.00






          TIME SUMMARY AT END OF TIME STEP   1 IN STRESS PERIOD  114
                    SECONDS     MINUTES      HOURS       DAYS        YEARS
                    -----------------------------------------------------------
   TIME STEP LENGTH  172.80      2.8800     4.80000E-02 2.00000E-03 5.47570E-06
 STRESS PERIOD TIME  172.80      2.8800     4.80000E-02 2.00000E-03 5.47570E-06
         TOTAL TIME  19699.      328.32      5.4720     0.22800     6.24230E-04
1
1
                            STRESS PERIOD NO.  115, LENGTH =  0.2000000E-02
                            -----------------------------------------------

                              NUMBER OF TIME STEPS =     1

                               MULTIPLIER FOR DELT =     1.000

                            INITIAL TIME STEP SIZE =  0.2000000E-02

 WELL NO.  LAYER   ROW   COL   STRESS RATE         
 --------------------------------------------------
      1      1      1      1       1.000    

      1 WELL
 
 SOLVING FOR HEAD 

 OUTPUT CONTROL FOR STRESS PERIOD  115   TIME STEP   1
    SAVE HEAD FOR ALL LAYERS
    SAVE BUDGET
 UBDSV1 SAVING "         STORAGE" ON UNIT  31 AT TIME STEP  1, STRESS PERIOD 115
 UBDSV2 SAVING "   CONSTANT HEAD" ON UNIT  31 AT TIME STEP  1, STRESS PERIOD 115
 UBDSV1 SAVING "FLOW RIGHT FACE " ON UNIT  31 AT TIME STEP  1, STRESS PERIOD 115
 UBDSV4 SAVING "           WELLS" ON UNIT  31 AT TIME STEP  1, STRESS PERIOD 115

 SAVING SATURATED THICKNESS AND FLOW TERMS ON UNIT  333 FOR MT3DMS
 BY THE LINK-MT3DMS PACKAGE V6.3 AT TIME STEP    1, STRESS PERIOD  115


 HEAD WILL BE SAVED ON UNIT   30 AT END OF TIME STEP   1, STRESS PERIOD  115
1
  VOLUMETRIC BUDGET FOR ENTIRE MODEL AT END OF TIME STEP  1 IN STRESS PERIOD 115
  ------------------------------------------------------------------------------

     CUMULATIVE VOLUMES      L**3       RATES FOR THIS TIME STEP      L**3/T
     ------------------                 ------------------------

           IN:                                      IN:
           ---                                      ---
             STORAGE =       1.3223E-13               STORAGE =       5.7997E-13
       CONSTANT HEAD =           0.0000         CONSTANT HEAD =           0.0000
               WELLS =           0.2300                 WELLS =           1.0000

            TOTAL IN =           0.2300              TOTAL IN =           1.0000

          OUT:                                     OUT:
          ----                                     ----
             STORAGE =       1.3799E-13               STORAGE =       6.0521E-13
       CONSTANT HEAD =           0.2300         CONSTANT HEAD =           1.0000
               WELLS =           0.0000                 WELLS =           0.0000

           TOTAL OUT =           0.2300             TOTAL OUT =           1.0000

            IN - OUT =           0.0000              IN - OUT =           0.0000

 PERCENT DISCREPANCY =           0.00     PERCENT DISCREPANCY =           0.00






          TIME SUMMARY AT END OF TIME STEP   1 IN STRESS PERIOD  115
                    SECONDS     MINUTES      HOURS       DAYS        YEARS
                    -----------------------------------------------------------
   TIME STEP LENGTH  172.80      2.8800     4.80000E-02 2.00000E-03 5.47570E-06
 STRESS PERIOD TIME  172.80      2.8800     4.80000E-02 2.00000E-03 5.47570E-06
         TOTAL TIME  19872.      331.20      5.5200     0.23000     6.29706E-04
1
1
                            STRESS PERIOD NO.  116, LENGTH =  0.2000000E-02
                            -----------------------------------------------

                              NUMBER OF TIME STEPS =     1

                               MULTIPLIER FOR DELT =     1.000

                            INITIAL TIME STEP SIZE =  0.2000000E-02

 WELL NO.  LAYER   ROW   COL   STRESS RATE         
 --------------------------------------------------
      1      1      1      1       1.000    

      1 WELL
 
 SOLVING FOR HEAD 

 OUTPUT CONTROL FOR STRESS PERIOD  116   TIME STEP   1
    SAVE HEAD FOR ALL LAYERS
    SAVE BUDGET
 UBDSV1 SAVING "         STORAGE" ON UNIT  31 AT TIME STEP  1, STRESS PERIOD 116
 UBDSV2 SAVING "   CONSTANT HEAD" ON UNIT  31 AT TIME STEP  1, STRESS PERIOD 116
 UBDSV1 SAVING "FLOW RIGHT FACE " ON UNIT  31 AT TIME STEP  1, STRESS PERIOD 116
 UBDSV4 SAVING "           WELLS" ON UNIT  31 AT TIME STEP  1, STRESS PERIOD 116

 SAVING SATURATED THICKNESS AND FLOW TERMS ON UNIT  333 FOR MT3DMS
 BY THE LINK-MT3DMS PACKAGE V6.3 AT TIME STEP    1, STRESS PERIOD  116


 HEAD WILL BE SAVED ON UNIT   30 AT END OF TIME STEP   1, STRESS PERIOD  116
1
  VOLUMETRIC BUDGET FOR ENTIRE MODEL AT END OF TIME STEP  1 IN STRESS PERIOD 116
  ------------------------------------------------------------------------------

     CUMULATIVE VOLUMES      L**3       RATES FOR THIS TIME STEP      L**3/T
     ------------------                 ------------------------

           IN:                                      IN:
           ---                                      ---
             STORAGE =       1.3339E-13               STORAGE =       5.7997E-13
       CONSTANT HEAD =           0.0000         CONSTANT HEAD =           0.0000
               WELLS =           0.2320                 WELLS =           1.0000

            TOTAL IN =           0.2320              TOTAL IN =           1.0000

          OUT:                                     OUT:
          ----                                     ----
             STORAGE =       1.3920E-13               STORAGE =       6.0521E-13
       CONSTANT HEAD =           0.2320         CONSTANT HEAD =           1.0000
               WELLS =           0.0000                 WELLS =           0.0000

           TOTAL OUT =           0.2320             TOTAL OUT =           1.0000

            IN - OUT =           0.0000              IN - OUT =           0.0000

 PERCENT DISCREPANCY =           0.00     PERCENT DISCREPANCY =           0.00






          TIME SUMMARY AT END OF TIME STEP   1 IN STRESS PERIOD  116
                    SECONDS     MINUTES      HOURS       DAYS        YEARS
                    -----------------------------------------------------------
   TIME STEP LENGTH  172.80      2.8800     4.80000E-02 2.00000E-03 5.47570E-06
 STRESS PERIOD TIME  172.80      2.8800     4.80000E-02 2.00000E-03 5.47570E-06
         TOTAL TIME  20045.      334.08      5.5680     0.23200     6.35182E-04
1
1
                            STRESS PERIOD NO.  117, LENGTH =  0.2000000E-02
                            -----------------------------------------------

                              NUMBER OF TIME STEPS =     1

                               MULTIPLIER FOR DELT =     1.000

                            INITIAL TIME STEP SIZE =  0.2000000E-02

 WELL NO.  LAYER   ROW   COL   STRESS RATE         
 --------------------------------------------------
      1      1      1      1       1.000    

      1 WELL
 
 SOLVING FOR HEAD 

 OUTPUT CONTROL FOR STRESS PERIOD  117   TIME STEP   1
    SAVE HEAD FOR ALL LAYERS
    SAVE BUDGET
 UBDSV1 SAVING "         STORAGE" ON UNIT  31 AT TIME STEP  1, STRESS PERIOD 117
 UBDSV2 SAVING "   CONSTANT HEAD" ON UNIT  31 AT TIME STEP  1, STRESS PERIOD 117
 UBDSV1 SAVING "FLOW RIGHT FACE " ON UNIT  31 AT TIME STEP  1, STRESS PERIOD 117
 UBDSV4 SAVING "           WELLS" ON UNIT  31 AT TIME STEP  1, STRESS PERIOD 117

 SAVING SATURATED THICKNESS AND FLOW TERMS ON UNIT  333 FOR MT3DMS
 BY THE LINK-MT3DMS PACKAGE V6.3 AT TIME STEP    1, STRESS PERIOD  117


 HEAD WILL BE SAVED ON UNIT   30 AT END OF TIME STEP   1, STRESS PERIOD  117
1
  VOLUMETRIC BUDGET FOR ENTIRE MODEL AT END OF TIME STEP  1 IN STRESS PERIOD 117
  ------------------------------------------------------------------------------

     CUMULATIVE VOLUMES      L**3       RATES FOR THIS TIME STEP      L**3/T
     ------------------                 ------------------------

           IN:                                      IN:
           ---                                      ---
             STORAGE =       1.3455E-13               STORAGE =       5.7997E-13
       CONSTANT HEAD =           0.0000         CONSTANT HEAD =           0.0000
               WELLS =           0.2340                 WELLS =           1.0000

            TOTAL IN =           0.2340              TOTAL IN =           1.0000

          OUT:                                     OUT:
          ----                                     ----
             STORAGE =       1.4041E-13               STORAGE =       6.0521E-13
       CONSTANT HEAD =           0.2340         CONSTANT HEAD =           1.0000
               WELLS =           0.0000                 WELLS =           0.0000

           TOTAL OUT =           0.2340             TOTAL OUT =           1.0000

            IN - OUT =           0.0000              IN - OUT =           0.0000

 PERCENT DISCREPANCY =           0.00     PERCENT DISCREPANCY =           0.00






          TIME SUMMARY AT END OF TIME STEP   1 IN STRESS PERIOD  117
                    SECONDS     MINUTES      HOURS       DAYS        YEARS
                    -----------------------------------------------------------
   TIME STEP LENGTH  172.80      2.8800     4.80000E-02 2.00000E-03 5.47570E-06
 STRESS PERIOD TIME  172.80      2.8800     4.80000E-02 2.00000E-03 5.47570E-06
         TOTAL TIME  20218.      336.96      5.6160     0.23400     6.40657E-04
1
1
                            STRESS PERIOD NO.  118, LENGTH =  0.2000000E-02
                            -----------------------------------------------

                              NUMBER OF TIME STEPS =     1

                               MULTIPLIER FOR DELT =     1.000

                            INITIAL TIME STEP SIZE =  0.2000000E-02

 WELL NO.  LAYER   ROW   COL   STRESS RATE         
 --------------------------------------------------
      1      1      1      1       1.000    

      1 WELL
 
 SOLVING FOR HEAD 

 OUTPUT CONTROL FOR STRESS PERIOD  118   TIME STEP   1
    SAVE HEAD FOR ALL LAYERS
    SAVE BUDGET
 UBDSV1 SAVING "         STORAGE" ON UNIT  31 AT TIME STEP  1, STRESS PERIOD 118
 UBDSV2 SAVING "   CONSTANT HEAD" ON UNIT  31 AT TIME STEP  1, STRESS PERIOD 118
 UBDSV1 SAVING "FLOW RIGHT FACE " ON UNIT  31 AT TIME STEP  1, STRESS PERIOD 118
 UBDSV4 SAVING "           WELLS" ON UNIT  31 AT TIME STEP  1, STRESS PERIOD 118

 SAVING SATURATED THICKNESS AND FLOW TERMS ON UNIT  333 FOR MT3DMS
 BY THE LINK-MT3DMS PACKAGE V6.3 AT TIME STEP    1, STRESS PERIOD  118


 HEAD WILL BE SAVED ON UNIT   30 AT END OF TIME STEP   1, STRESS PERIOD  118
1
  VOLUMETRIC BUDGET FOR ENTIRE MODEL AT END OF TIME STEP  1 IN STRESS PERIOD 118
  ------------------------------------------------------------------------------

     CUMULATIVE VOLUMES      L**3       RATES FOR THIS TIME STEP      L**3/T
     ------------------                 ------------------------

           IN:                                      IN:
           ---                                      ---
             STORAGE =       1.3571E-13               STORAGE =       5.7997E-13
       CONSTANT HEAD =           0.0000         CONSTANT HEAD =           0.0000
               WELLS =           0.2360                 WELLS =           1.0000

            TOTAL IN =           0.2360              TOTAL IN =           1.0000

          OUT:                                     OUT:
          ----                                     ----
             STORAGE =       1.4162E-13               STORAGE =       6.0521E-13
       CONSTANT HEAD =           0.2360         CONSTANT HEAD =           1.0000
               WELLS =           0.0000                 WELLS =           0.0000

           TOTAL OUT =           0.2360             TOTAL OUT =           1.0000

            IN - OUT =           0.0000              IN - OUT =           0.0000

 PERCENT DISCREPANCY =           0.00     PERCENT DISCREPANCY =           0.00






          TIME SUMMARY AT END OF TIME STEP   1 IN STRESS PERIOD  118
                    SECONDS     MINUTES      HOURS       DAYS        YEARS
                    -----------------------------------------------------------
   TIME STEP LENGTH  172.80      2.8800     4.80000E-02 2.00000E-03 5.47570E-06
 STRESS PERIOD TIME  172.80      2.8800     4.80000E-02 2.00000E-03 5.47570E-06
         TOTAL TIME  20390.      339.84      5.6640     0.23600     6.46133E-04
1
1
                            STRESS PERIOD NO.  119, LENGTH =  0.2000000E-02
                            -----------------------------------------------

                              NUMBER OF TIME STEPS =     1

                               MULTIPLIER FOR DELT =     1.000

                            INITIAL TIME STEP SIZE =  0.2000000E-02

 WELL NO.  LAYER   ROW   COL   STRESS RATE         
 --------------------------------------------------
      1      1      1      1       1.000    

      1 WELL
 
 SOLVING FOR HEAD 

 OUTPUT CONTROL FOR STRESS PERIOD  119   TIME STEP   1
    SAVE HEAD FOR ALL LAYERS
    SAVE BUDGET
 UBDSV1 SAVING "         STORAGE" ON UNIT  31 AT TIME STEP  1, STRESS PERIOD 119
 UBDSV2 SAVING "   CONSTANT HEAD" ON UNIT  31 AT TIME STEP  1, STRESS PERIOD 119
 UBDSV1 SAVING "FLOW RIGHT FACE " ON UNIT  31 AT TIME STEP  1, STRESS PERIOD 119
 UBDSV4 SAVING "           WELLS" ON UNIT  31 AT TIME STEP  1, STRESS PERIOD 119

 SAVING SATURATED THICKNESS AND FLOW TERMS ON UNIT  333 FOR MT3DMS
 BY THE LINK-MT3DMS PACKAGE V6.3 AT TIME STEP    1, STRESS PERIOD  119


 HEAD WILL BE SAVED ON UNIT   30 AT END OF TIME STEP   1, STRESS PERIOD  119
1
  VOLUMETRIC BUDGET FOR ENTIRE MODEL AT END OF TIME STEP  1 IN STRESS PERIOD 119
  ------------------------------------------------------------------------------

     CUMULATIVE VOLUMES      L**3       RATES FOR THIS TIME STEP      L**3/T
     ------------------                 ------------------------

           IN:                                      IN:
           ---                                      ---
             STORAGE =       1.3687E-13               STORAGE =       5.7997E-13
       CONSTANT HEAD =           0.0000         CONSTANT HEAD =           0.0000
               WELLS =           0.2380                 WELLS =           1.0000

            TOTAL IN =           0.2380              TOTAL IN =           1.0000

          OUT:                                     OUT:
          ----                                     ----
             STORAGE =       1.4283E-13               STORAGE =       6.0521E-13
       CONSTANT HEAD =           0.2380         CONSTANT HEAD =           1.0000
               WELLS =           0.0000                 WELLS =           0.0000

           TOTAL OUT =           0.2380             TOTAL OUT =           1.0000

            IN - OUT =           0.0000              IN - OUT =           0.0000

 PERCENT DISCREPANCY =           0.00     PERCENT DISCREPANCY =           0.00






          TIME SUMMARY AT END OF TIME STEP   1 IN STRESS PERIOD  119
                    SECONDS     MINUTES      HOURS       DAYS        YEARS
                    -----------------------------------------------------------
   TIME STEP LENGTH  172.80      2.8800     4.80000E-02 2.00000E-03 5.47570E-06
 STRESS PERIOD TIME  172.80      2.8800     4.80000E-02 2.00000E-03 5.47570E-06
         TOTAL TIME  20563.      342.72      5.7120     0.23800     6.51609E-04
1
1
                            STRESS PERIOD NO.  120, LENGTH =  0.2000000E-02
                            -----------------------------------------------

                              NUMBER OF TIME STEPS =     1

                               MULTIPLIER FOR DELT =     1.000

                            INITIAL TIME STEP SIZE =  0.2000000E-02

 WELL NO.  LAYER   ROW   COL   STRESS RATE         
 --------------------------------------------------
      1      1      1      1       1.000    

      1 WELL
 
 SOLVING FOR HEAD 

 OUTPUT CONTROL FOR STRESS PERIOD  120   TIME STEP   1
    SAVE HEAD FOR ALL LAYERS
    SAVE BUDGET
 UBDSV1 SAVING "         STORAGE" ON UNIT  31 AT TIME STEP  1, STRESS PERIOD 120
 UBDSV2 SAVING "   CONSTANT HEAD" ON UNIT  31 AT TIME STEP  1, STRESS PERIOD 120
 UBDSV1 SAVING "FLOW RIGHT FACE " ON UNIT  31 AT TIME STEP  1, STRESS PERIOD 120
 UBDSV4 SAVING "           WELLS" ON UNIT  31 AT TIME STEP  1, STRESS PERIOD 120

 SAVING SATURATED THICKNESS AND FLOW TERMS ON UNIT  333 FOR MT3DMS
 BY THE LINK-MT3DMS PACKAGE V6.3 AT TIME STEP    1, STRESS PERIOD  120


 HEAD WILL BE SAVED ON UNIT   30 AT END OF TIME STEP   1, STRESS PERIOD  120
1
  VOLUMETRIC BUDGET FOR ENTIRE MODEL AT END OF TIME STEP  1 IN STRESS PERIOD 120
  ------------------------------------------------------------------------------

     CUMULATIVE VOLUMES      L**3       RATES FOR THIS TIME STEP      L**3/T
     ------------------                 ------------------------

           IN:                                      IN:
           ---                                      ---
             STORAGE =       1.3803E-13               STORAGE =       5.7997E-13
       CONSTANT HEAD =           0.0000         CONSTANT HEAD =           0.0000
               WELLS =           0.2400                 WELLS =           1.0000

            TOTAL IN =           0.2400              TOTAL IN =           1.0000

          OUT:                                     OUT:
          ----                                     ----
             STORAGE =       1.4404E-13               STORAGE =       6.0521E-13
       CONSTANT HEAD =           0.2400         CONSTANT HEAD =           1.0000
               WELLS =           0.0000                 WELLS =           0.0000

           TOTAL OUT =           0.2400             TOTAL OUT =           1.0000

            IN - OUT =           0.0000              IN - OUT =           0.0000

 PERCENT DISCREPANCY =           0.00     PERCENT DISCREPANCY =           0.00






          TIME SUMMARY AT END OF TIME STEP   1 IN STRESS PERIOD  120
                    SECONDS     MINUTES      HOURS       DAYS        YEARS
                    -----------------------------------------------------------
   TIME STEP LENGTH  172.80      2.8800     4.80000E-02 2.00000E-03 5.47570E-06
 STRESS PERIOD TIME  172.80      2.8800     4.80000E-02 2.00000E-03 5.47570E-06
         TOTAL TIME  20736.      345.60      5.7600     0.24000     6.57085E-04
1
