                                   MODFLOW 6
                U.S. GEOLOGICAL SURVEY MODULAR HYDROLOGIC MODEL
                       GROUNDWATER TRANSPORT MODEL (GWT)
                VERSION 6.5.0.dev0+prt (preliminary) 10/07/2023
                               ***DEVELOP MODE***

   MODFLOW 6 compiled Oct 07 2023 02:19:02 with Intel(R) Fortran Intel(R) 64
   Compiler Classic for applications running on Intel(R) 64, Version 2021.7.0
                             Build 20220726_000000

This software is preliminary or provisional and is subject to 
revision. It is being provided to meet the need for timely best 
science. The software has not received final approval by the U.S. 
Geological Survey (USGS). No warranty, expressed or implied, is made 
by the USGS or the U.S. Government as to the functionality of the 
software and related material nor shall the fact of release 
constitute any such warranty. The software is provided on the 
condition that neither the USGS nor the U.S. Government shall be held 
liable for any damages resulting from the authorized or unauthorized 
use of the software.


As a work of the United States Government, this USGS product is 
in the public domain within the United States. You can copy, 
modify, distribute, and perform the work, even for commercial 
purposes, all without asking permission. Additionally, USGS 
waives copyright and related rights in the work worldwide 
through CC0 1.0 Universal Public Domain Dedication 
(https://creativecommons.org/publicdomain/zero/1.0/).

The following GNU Lesser General Public License (LGPL) libraries
are used in this USGS product:

    SPARSKIT version 2.0
      ilut, luson, and qsplit 
      (https://www-users.cse.umn.edu/~saad/software/SPARSKIT/)

    RCM - Reverse Cuthill McKee Ordering
      (https://people.math.sc.edu/Burkardt/f_src/rcm/rcm.html)

    BLAS - Basic Linear Algebra Subprograms Level 1
      (https://people.math.sc.edu/Burkardt/f_src/blas1_d/blas1_d.html)

    SPARSEKIT - Sparse Matrix Utility Package
      amux, dperm, dvperm, rperm, and cperm
      (https://people.sc.fsu.edu/~jburkardt/f77_src/sparsekit/sparsekit.html)

The following BSD-3 License libraries are used in this USGS product:

    Modern Fortran DAG Library
      Copyright (c) 2018, Jacob Williams
      All rights reserved.
      (https://github.com/jacobwilliams/daglib)

MODFLOW 6 compiler options: /Isrc\libmf6core.a.p /Isrc /I..\src
/Isrc\libmf6_external.a.p /MTd /nologo /warn:general /warn:truncated_source
/stand:f08 /Zi /traceback /O2 /fpe:0 /heap-arrays:0 /traceback /fpp
/Qdiag-disable:7416 /Qdiag-disable:7025 /Qdiag-disable:5268
/Fdsrc\libmf6core.a.p\Utilities_compilerversion.F90.pdb
/module:src\libmf6core.a.p
/Fosrc/libmf6core.a.p/Utilities_compilerversion.F90.obj /c

System command used to initiate simulation:
c:\Users\portega\anaconda3\envs\mf6rtm\python.exe -m ipykernel_launcher --f=c:\Users\portega\AppData\Roaming\jupyter\runtime\kernel-v2-17404w7nug58txkWt.json

MODFLOW was compiled using uniform precision.

Real Variables
  KIND: 8
  TINY (smallest non-zero value):    2.225074-308
  HUGE (largest value):    1.797693+308
  PRECISION: 15
  SIZE IN BITS: 64

Integer Variables
  KIND: 4
  HUGE (largest value): 2147483647
  SIZE IN BITS: 32

Long Integer Variables
  KIND: 8
  HUGE (largest value): 9223372036854775807
  SIZE IN BITS: 64

Logical Variables
  KIND: 4
  SIZE IN BITS: 32
 
 NAMEFILE OPTIONS:
 END NAMEFILE OPTIONS:

 DIS -- STRUCTURED GRID DISCRETIZATION PACKAGE, VERSION 2 : 3/27/2014 - INPUT READ FROM MEMPATH: __INPUT__/AL/DIS                                  


 DSP-- DISPERSION PACKAGE, VERSION 1, 1/24/2018 INPUT READ FROM MEMPATH: __INPUT__/AL/DSP                                  


 Setting Discretization Options
    Model length unit [0=UND, 1=FEET, 2=METERS, 3=CENTIMETERS] set as 2
 End Setting Discretization Options

 Setting Discretization Dimensions
    NLAY = 10
    NROW = 1
    NCOL = 25
 End Setting Discretization Dimensions

 Setting Discretization Griddata
    DELR set from input file
    DELC set from input file
    TOP set from input file
    BOTM set from input file
    IDOMAIN set from input file
 End Setting Discretization Griddata


 FMI -- FLOW MODEL INTERFACE,' VERSION 2, 8/17/2023
  FLOWS PROVIDED BY A GWF MODEL IN THIS SIMULATION

 ADV-- ADVECTION PACKAGE, VERSION 1, 8/25/2017 INPUT READ FROM UNIT 1248


 # File generated by Flopy version 3.5.0.dev0 on 07/12/2024 at 15:45:50.
 PROCESSING ADVECTION OPTIONS
    ADVECTION WEIGHTING SCHEME HAS BEEN SET TO: TVD
 END OF ADVECTION OPTIONS
 Setting DSP Options
    XT3D formulation [0=INACTIVE, 1=ACTIVE, 3=ACTIVE RHS] set to: 0
 End Setting DSP Options

 Setting DSP Griddata
    ALH set from input file
    ATH1 set from input file
    ATV set from input file
 End Setting DSP Griddata


 CNC   -- CNC PACKAGE, VERSION 8, 2/22/2014 INPUT READ FROM UNIT 1282
 # File generated by Flopy version 3.5.0.dev0 on 07/12/2024 at 15:45:50.

 PROCESSING CNC OPTIONS
    CNC FLOWS WILL BE PRINTED TO LISTING FILE.
    FLOWS WILL BE SAVED TO BUDGET FILE SPECIFIED IN OUTPUT CONTROL
 END OF CNC OPTIONS

 PROCESSING CNC DIMENSIONS
    MAXBOUND =       7
 END OF CNC DIMENSIONS

 IC -- INITIAL CONDITIONS PACKAGE, VERSION 8, 3/28/2015 INPUT READ FROM UNIT 1246
 # File generated by Flopy version 3.5.0.dev0 on 07/12/2024 at 15:45:50.
 PROCESSING GRIDDATA

 OPENED Al.ic_strt_layer1.txt
 FILE TYPE:OPEN/CLOSE   UNIT 1980   STATUS:OLD                 
 FORMAT:FORMATTED              ACCESS:SEQUENTIAL          
 ACTION:READ                


 OPENED Al.ic_strt_layer2.txt
 FILE TYPE:OPEN/CLOSE   UNIT 1981   STATUS:OLD                 
 FORMAT:FORMATTED              ACCESS:SEQUENTIAL          
 ACTION:READ                


 OPENED Al.ic_strt_layer3.txt
 FILE TYPE:OPEN/CLOSE   UNIT 1982   STATUS:OLD                 
 FORMAT:FORMATTED              ACCESS:SEQUENTIAL          
 ACTION:READ                


 OPENED Al.ic_strt_layer4.txt
 FILE TYPE:OPEN/CLOSE   UNIT 1983   STATUS:OLD                 
 FORMAT:FORMATTED              ACCESS:SEQUENTIAL          
 ACTION:READ                


 OPENED Al.ic_strt_layer5.txt
 FILE TYPE:OPEN/CLOSE   UNIT 1984   STATUS:OLD                 
 FORMAT:FORMATTED              ACCESS:SEQUENTIAL          
 ACTION:READ                


 OPENED Al.ic_strt_layer6.txt
 FILE TYPE:OPEN/CLOSE   UNIT 1985   STATUS:OLD                 
 FORMAT:FORMATTED              ACCESS:SEQUENTIAL          
 ACTION:READ                


 OPENED Al.ic_strt_layer7.txt
 FILE TYPE:OPEN/CLOSE   UNIT 1986   STATUS:OLD                 
 FORMAT:FORMATTED              ACCESS:SEQUENTIAL          
 ACTION:READ                


 OPENED Al.ic_strt_layer8.txt
 FILE TYPE:OPEN/CLOSE   UNIT 1987   STATUS:OLD                 
 FORMAT:FORMATTED              ACCESS:SEQUENTIAL          
 ACTION:READ                


 OPENED Al.ic_strt_layer9.txt
 FILE TYPE:OPEN/CLOSE   UNIT 1988   STATUS:OLD                 
 FORMAT:FORMATTED              ACCESS:SEQUENTIAL          
 ACTION:READ                


 OPENED Al.ic_strt_layer10.txt
 FILE TYPE:OPEN/CLOSE   UNIT 1989   STATUS:OLD                 
 FORMAT:FORMATTED              ACCESS:SEQUENTIAL          
 ACTION:READ                

 END PROCESSING GRIDDATA

 MST -- MOBILE STORAGE AND TRANSFER PACKAGE, VERSION 1, 7/29/2020 INPUT READ FROM UNIT 1247


 # File generated by Flopy version 3.5.0.dev0 on 07/12/2024 at 15:45:50.
 PROCESSING MOBILE STORAGE AND TRANSFER OPTIONS
 END OF MOBILE STORAGE AND TRANSFER OPTIONS
 PROCESSING GRIDDATA

 OPENED Al.mst_porosity.txt
 FILE TYPE:OPEN/CLOSE   UNIT 1990   STATUS:OLD                 
 FORMAT:FORMATTED              ACCESS:SEQUENTIAL          
 ACTION:READ                

 END PROCESSING GRIDDATA

 SSM -- SOURCE-SINK MIXING PACKAGE, VERSION 1, 8/25/2017 INPUT READ FROM UNIT 1280


 # File generated by Flopy version 3.5.0.dev0 on 07/12/2024 at 15:45:50.
 PROCESSING SSM OPTIONS
    SSM FLOW INFORMATION WILL BE PRINTED TO LISTING FILE WHENEVER ICBCFL IS NOT ZERO.
    CELL-BY-CELL FLOW INFORMATION WILL BE SAVED TO BINARY FILE WHENEVER ICBCFL IS NOT ZERO.
 END OF SSM OPTIONS

 OPENED Al.ssm_sources.txt
 FILE TYPE:OPEN/CLOSE   UNIT 1991   STATUS:OLD                 
 FORMAT:FORMATTED              ACCESS:SEQUENTIAL          
 ACTION:READ                

 PROCESSING SOURCES
 AUX SOURCE DETECTED.
    USING AUX COLUMN 4 IN PACKAGE CHD
 END PROCESSING SOURCES
 OPTIONAL FILEINPUT BLOCK NOT FOUND.  CONTINUING.
      THE LAST TIME STEP WILL BE PRINTED
      THE LAST TIME STEP WILL BE PRINTED
 # File generated by Flopy version 3.5.0.dev0 on 07/12/2024 at 15:45:50.

 PROCESSING OC OPTIONS

    BUDGET INFORMATION WILL BE WRITTEN TO:
      UNIT NUMBER: 1992
      FILE NAME: Al.cbb

 OPENED Al.cbb
 FILE TYPE:DATA(BINARY)   UNIT 1992   STATUS:REPLACE             
 FORMAT:UNFORMATTED            ACCESS:STREAM              
 ACTION:READWRITE           

    CONCENTRATION INFORMATION WILL BE WRITTEN TO:
      UNIT NUMBER: 1993
      FILE NAME: Al.ucn

 OPENED Al.ucn
 FILE TYPE:DATA(BINARY)   UNIT 1993   STATUS:REPLACE             
 FORMAT:UNFORMATTED            ACCESS:STREAM              
 ACTION:READWRITE           

 END OF OC OPTIONS

start timestep kper="1" kstp="1" mode="normal"


 BEGIN READING OUTPUT CONTROL FOR STRESS PERIOD 1
      ALL TIME STEPS WILL BE SAVED
      ALL TIME STEPS WILL BE SAVED
      ALL TIME STEPS WILL BE PRINTED
      ALL TIME STEPS WILL BE PRINTED

 END READING OUTPUT CONTROL FOR STRESS PERIOD 1

 OPENED Al.cnc_stress_period_data_1.txt
 FILE TYPE:OPEN/CLOSE   UNIT 2137   STATUS:OLD                 
 FORMAT:FORMATTED              ACCESS:SEQUENTIAL          
 ACTION:READ                

 UBDSV06 SAVING  SOURCE-SINK MIX IN MODEL AL               PACKAGE AL              CONNECTED TO MODEL AL               PACKAGE SSM              ON UNIT   1992 AT TIME STEP      1, STRESS PERIOD      1
 UBDSV06 SAVING              CNC IN MODEL AL               PACKAGE AL              CONNECTED TO MODEL AL               PACKAGE CNC              ON UNIT   1992 AT TIME STEP      1, STRESS PERIOD      1

 SSM PACKAGE (SSM) FLOW RATES   PERIOD      1   STEP        1
 ------------------------------------------------------------------------------------------------
   NUMBER   CELLID                   BOUND Q        SSM CONC          RATE         PACKAGE NAME  
 ------------------------------------------------------------------------------------------------
     1      (1,1,1)               2.08333361E-02  4.2872850       8.93184492E-02       CHD       
     2      (2,1,1)               2.08333361E-02  4.2872850       8.93184492E-02       CHD       
     3      (3,1,1)               2.08333361E-02  4.2872850       8.93184493E-02       CHD       
     4      (4,1,1)               0.0000000       0.0000000       0.0000000            CHD       
     5      (5,1,1)               0.0000000       0.0000000       0.0000000            CHD       
     6      (6,1,1)               0.0000000       0.0000000       0.0000000            CHD       
     7      (7,1,1)               0.0000000       0.0000000       0.0000000            CHD       
     8      (8,1,1)               0.0000000       0.0000000       0.0000000            CHD       
     9      (9,1,1)               0.0000000       0.0000000       0.0000000            CHD       
     10     (10,1,1)              0.0000000       0.0000000       0.0000000            CHD       
     11     (1,1,25)             -2.08333402E-02  1.49644817E-04 -3.11760137E-06       CHD       
     12     (2,1,25)             -2.08333402E-02  1.49644817E-04 -3.11760138E-06       CHD       
     13     (3,1,25)             -2.08333402E-02  1.49644817E-04 -3.11760138E-06       CHD       
     14     (4,1,25)             -2.08333403E-02  1.49644817E-04 -3.11760138E-06       CHD       
     15     (5,1,25)             -2.08333403E-02  1.49644817E-04 -3.11760138E-06       CHD       
     16     (6,1,25)             -2.08333403E-02  1.49644817E-04 -3.11760139E-06       CHD       
     17     (7,1,25)             -2.08333403E-02  1.49644817E-04 -3.11760139E-06       CHD       
     18     (8,1,25)             -2.08333403E-02  1.49644817E-04 -3.11760139E-06       CHD       
     19     (9,1,25)             -2.08333403E-02  1.49644817E-04 -3.11760139E-06       CHD       
     20     (10,1,25)            -2.08333403E-02  1.49644817E-04 -3.11760139E-06       CHD       
 ------------------------------------------------------------------------------------------------




 CNC PACKAGE (CNC) FLOW RATES   PERIOD      1   STEP        1
 -----------------------------------------------
   NUMBER   CELLID                    RATE      
 -----------------------------------------------
     1      (4,1,1)              -6.31957839E-02
     2      (5,1,1)              -1.03224452E-04
     3      (6,1,1)              -4.04133741E-05
     4      (7,1,1)              -1.50249449E-05
     5      (8,1,1)              -4.76943938E-06
     6      (9,1,1)              -6.97439219E-07
     7      (10,1,1)              7.24403757E-07
 -----------------------------------------------



1
  CONCENTRATION IN LAYER   1 AT END OF TIME STEP   1 IN STRESS PERIOD    1
  ---------------------------------------------------------------------------

                1               2               3               4               5               6               7               8               9              10
               11              12              13              14              15              16              17              18              19              20
               21              22              23              24              25
 ................................................................................................................................................................
   1  *************** *************** *************** *************** *************** *************** *************** *************** *************** ***************
      *************** *************** *************** *************** *************** *************** *************** *************** *************** ***************
      *************** *************** *************** *************** ***************
1
  CONCENTRATION IN LAYER   2 AT END OF TIME STEP   1 IN STRESS PERIOD    1
  ---------------------------------------------------------------------------

                1               2               3               4               5               6               7               8               9              10
               11              12              13              14              15              16              17              18              19              20
               21              22              23              24              25
 ................................................................................................................................................................
   1  *************** *************** *************** *************** *************** *************** *************** *************** *************** ***************
      *************** *************** *************** *************** *************** *************** *************** *************** *************** ***************
      *************** *************** *************** *************** ***************
1
  CONCENTRATION IN LAYER   3 AT END OF TIME STEP   1 IN STRESS PERIOD    1
  ---------------------------------------------------------------------------

                1               2               3               4               5               6               7               8               9              10
               11              12              13              14              15              16              17              18              19              20
               21              22              23              24              25
 ................................................................................................................................................................
   1  *************** *************** *************** *************** *************** *************** *************** *************** *************** ***************
      *************** *************** *************** *************** *************** *************** *************** *************** *************** ***************
      *************** *************** *************** *************** ***************
1
  CONCENTRATION IN LAYER   4 AT END OF TIME STEP   1 IN STRESS PERIOD    1
  ---------------------------------------------------------------------------

                1               2               3               4               5               6               7               8               9              10
               11              12              13              14              15              16              17              18              19              20
               21              22              23              24              25
 ................................................................................................................................................................
   1  *************** *************** *************** *************** *************** *************** *************** *************** *************** ***************
      *************** *************** *************** *************** *************** *************** *************** *************** *************** ***************
      *************** *************** *************** *************** ***************
1
  CONCENTRATION IN LAYER   5 AT END OF TIME STEP   1 IN STRESS PERIOD    1
  ---------------------------------------------------------------------------

                1               2               3               4               5               6               7               8               9              10
               11              12              13              14              15              16              17              18              19              20
               21              22              23              24              25
 ................................................................................................................................................................
   1  *************** *************** *************** *************** *************** *************** *************** *************** *************** ***************
      *************** *************** *************** *************** *************** *************** *************** *************** *************** ***************
      *************** *************** *************** *************** ***************
1
  CONCENTRATION IN LAYER   6 AT END OF TIME STEP   1 IN STRESS PERIOD    1
  ---------------------------------------------------------------------------

                1               2               3               4               5               6               7               8               9              10
               11              12              13              14              15              16              17              18              19              20
               21              22              23              24              25
 ................................................................................................................................................................
   1  *************** *************** *************** *************** *************** *************** *************** *************** *************** ***************
      *************** *************** *************** *************** *************** *************** *************** *************** *************** ***************
      *************** *************** *************** *************** ***************
1
  CONCENTRATION IN LAYER   7 AT END OF TIME STEP   1 IN STRESS PERIOD    1
  ---------------------------------------------------------------------------

                1               2               3               4               5               6               7               8               9              10
               11              12              13              14              15              16              17              18              19              20
               21              22              23              24              25
 ................................................................................................................................................................
   1  *************** *************** *************** *************** *************** *************** *************** *************** *************** ***************
      *************** *************** *************** *************** *************** *************** *************** *************** *************** ***************
      *************** *************** *************** *************** ***************
1
  CONCENTRATION IN LAYER   8 AT END OF TIME STEP   1 IN STRESS PERIOD    1
  ---------------------------------------------------------------------------

                1               2               3               4               5               6               7               8               9              10
               11              12              13              14              15              16              17              18              19              20
               21              22              23              24              25
 ................................................................................................................................................................
   1  *************** *************** *************** *************** *************** *************** *************** *************** *************** ***************
      *************** *************** *************** *************** *************** *************** *************** *************** *************** ***************
      *************** *************** *************** *************** ***************
1
  CONCENTRATION IN LAYER   9 AT END OF TIME STEP   1 IN STRESS PERIOD    1
  ---------------------------------------------------------------------------

                1               2               3               4               5               6               7               8               9              10
               11              12              13              14              15              16              17              18              19              20
               21              22              23              24              25
 ................................................................................................................................................................
   1  *************** *************** *************** *************** *************** *************** *************** *************** *************** ***************
      *************** *************** *************** *************** *************** *************** *************** *************** *************** ***************
      *************** *************** *************** *************** ***************
1
  CONCENTRATION IN LAYER  10 AT END OF TIME STEP   1 IN STRESS PERIOD    1
  ---------------------------------------------------------------------------

                1               2               3               4               5               6               7               8               9              10
               11              12              13              14              15              16              17              18              19              20
               21              22              23              24              25
 ................................................................................................................................................................
   1  *************** *************** *************** *************** *************** *************** *************** *************** *************** ***************
      *************** *************** *************** *************** *************** *************** *************** *************** *************** ***************
      *************** *************** *************** *************** ***************

 CONCENTRATION WILL BE SAVED ON UNIT 1993 AT END OF TIME STEP    1, STRESS PERIOD    1


  MASS BUDGET FOR ENTIRE MODEL AT END OF TIME STEP    1, STRESS PERIOD   1
  ---------------------------------------------------------------------------------------------------

     CUMULATIVE MASS      M       RATES FOR THIS TIME STEP      M/T          PACKAGE NAME    
     ------------------                 ------------------------                     ----------------

           IN:                                      IN:
           ---                                      ---
     STORAGE-AQUEOUS =       1.9278E-10       STORAGE-AQUEOUS =       1.9278E-11     MST                              
                 CHD =           2.6796                   CHD =           0.2680     SSM_CHD                          
                 CNC =       7.2440E-06                   CNC =       7.2440E-07     CNC                              

            TOTAL IN =           2.6796              TOTAL IN =           0.2680

          OUT:                                     OUT:
          ----                                     ----
     STORAGE-AQUEOUS =           2.0456       STORAGE-AQUEOUS =           0.2046     MST                              
                 CHD =       3.1179E-04                   CHD =       3.1179E-05     SSM_CHD                          
                 CNC =           0.6336                   CNC =       6.3360E-02     CNC                              

           TOTAL OUT =           2.6796             TOTAL OUT =           0.2680

            IN - OUT =       2.0748E-09              IN - OUT =       2.0748E-10

 PERCENT DISCREPANCY =           0.00     PERCENT DISCREPANCY =           0.00




         TIME SUMMARY AT END OF TIME STEP    1 IN STRESS PERIOD    1
                    SECONDS     MINUTES      HOURS       DAYS        YEARS
                    -----------------------------------------------------------
   TIME STEP LENGTH 8.64000E+05  14400.      240.00      10.000     2.73785E-02
 STRESS PERIOD TIME 8.64000E+05  14400.      240.00      10.000     2.73785E-02
         TOTAL TIME 8.64000E+05  14400.      240.00      10.000     2.73785E-02


end timestep


start timestep kper="1" kstp="2" mode="normal"

 UBDSV06 SAVING  SOURCE-SINK MIX IN MODEL AL               PACKAGE AL              CONNECTED TO MODEL AL               PACKAGE SSM              ON UNIT   1992 AT TIME STEP      2, STRESS PERIOD      1
 UBDSV06 SAVING              CNC IN MODEL AL               PACKAGE AL              CONNECTED TO MODEL AL               PACKAGE CNC              ON UNIT   1992 AT TIME STEP      2, STRESS PERIOD      1

 SSM PACKAGE (SSM) FLOW RATES   PERIOD      1   STEP        2
 ------------------------------------------------------------------------------------------------
   NUMBER   CELLID                   BOUND Q        SSM CONC          RATE         PACKAGE NAME  
 ------------------------------------------------------------------------------------------------
     1      (1,1,1)               2.08333319E-02  4.2872850       8.93184311E-02       CHD       
     2      (2,1,1)               2.08333319E-02  4.2872850       8.93184311E-02       CHD       
     3      (3,1,1)               2.08333319E-02  4.2872850       8.93184310E-02       CHD       
     4      (4,1,1)               0.0000000       0.0000000       0.0000000            CHD       
     5      (5,1,1)               0.0000000       0.0000000       0.0000000            CHD       
     6      (6,1,1)               0.0000000       0.0000000       0.0000000            CHD       
     7      (7,1,1)               0.0000000       0.0000000       0.0000000            CHD       
     8      (8,1,1)               0.0000000       0.0000000       0.0000000            CHD       
     9      (9,1,1)               0.0000000       0.0000000       0.0000000            CHD       
     10     (10,1,1)              0.0000000       0.0000000       0.0000000            CHD       
     11     (1,1,25)             -2.08333370E-02  1.49644817E-04 -3.11760089E-06       CHD       
     12     (2,1,25)             -2.08333370E-02  1.49644817E-04 -3.11760089E-06       CHD       
     13     (3,1,25)             -2.08333370E-02  1.49644817E-04 -3.11760089E-06       CHD       
     14     (4,1,25)             -2.08333370E-02  1.49644816E-04 -3.11760089E-06       CHD       
     15     (5,1,25)             -2.08333370E-02  1.49644816E-04 -3.11760089E-06       CHD       
     16     (6,1,25)             -2.08333370E-02  1.49644816E-04 -3.11760090E-06       CHD       
     17     (7,1,25)             -2.08333370E-02  1.49644816E-04 -3.11760090E-06       CHD       
     18     (8,1,25)             -2.08333370E-02  1.49644816E-04 -3.11760090E-06       CHD       
     19     (9,1,25)             -2.08333370E-02  1.49644816E-04 -3.11760090E-06       CHD       
     20     (10,1,25)            -2.08333370E-02  1.49644816E-04 -3.11760090E-06       CHD       
 ------------------------------------------------------------------------------------------------




 CNC PACKAGE (CNC) FLOW RATES   PERIOD      1   STEP        2
 -----------------------------------------------
   NUMBER   CELLID                    RATE      
 -----------------------------------------------
     1      (4,1,1)              -6.31922533E-02
     2      (5,1,1)              -1.03197786E-04
     3      (6,1,1)              -4.04004724E-05
     4      (7,1,1)              -1.50187817E-05
     5      (8,1,1)              -4.76646465E-06
     6      (9,1,1)              -6.95903912E-07
     7      (10,1,1)              7.25389012E-07
 -----------------------------------------------



1
  CONCENTRATION IN LAYER   1 AT END OF TIME STEP   2 IN STRESS PERIOD    1
  ---------------------------------------------------------------------------

                1               2               3               4               5               6               7               8               9              10
               11              12              13              14              15              16              17              18              19              20
               21              22              23              24              25
 ................................................................................................................................................................
   1  *************** *************** *************** *************** *************** *************** *************** *************** *************** ***************
      *************** *************** *************** *************** *************** *************** *************** *************** *************** ***************
      *************** *************** *************** *************** ***************
1
  CONCENTRATION IN LAYER   2 AT END OF TIME STEP   2 IN STRESS PERIOD    1
  ---------------------------------------------------------------------------

                1               2               3               4               5               6               7               8               9              10
               11              12              13              14              15              16              17              18              19              20
               21              22              23              24              25
 ................................................................................................................................................................
   1  *************** *************** *************** *************** *************** *************** *************** *************** *************** ***************
      *************** *************** *************** *************** *************** *************** *************** *************** *************** ***************
      *************** *************** *************** *************** ***************
1
  CONCENTRATION IN LAYER   3 AT END OF TIME STEP   2 IN STRESS PERIOD    1
  ---------------------------------------------------------------------------

                1               2               3               4               5               6               7               8               9              10
               11              12              13              14              15              16              17              18              19              20
               21              22              23              24              25
 ................................................................................................................................................................
   1  *************** *************** *************** *************** *************** *************** *************** *************** *************** ***************
      *************** *************** *************** *************** *************** *************** *************** *************** *************** ***************
      *************** *************** *************** *************** ***************
1
  CONCENTRATION IN LAYER   4 AT END OF TIME STEP   2 IN STRESS PERIOD    1
  ---------------------------------------------------------------------------

                1               2               3               4               5               6               7               8               9              10
               11              12              13              14              15              16              17              18              19              20
               21              22              23              24              25
 ................................................................................................................................................................
   1  *************** *************** *************** *************** *************** *************** *************** *************** *************** ***************
      *************** *************** *************** *************** *************** *************** *************** *************** *************** ***************
      *************** *************** *************** *************** ***************
1
  CONCENTRATION IN LAYER   5 AT END OF TIME STEP   2 IN STRESS PERIOD    1
  ---------------------------------------------------------------------------

                1               2               3               4               5               6               7               8               9              10
               11              12              13              14              15              16              17              18              19              20
               21              22              23              24              25
 ................................................................................................................................................................
   1  *************** *************** *************** *************** *************** *************** *************** *************** *************** ***************
      *************** *************** *************** *************** *************** *************** *************** *************** *************** ***************
      *************** *************** *************** *************** ***************
1
  CONCENTRATION IN LAYER   6 AT END OF TIME STEP   2 IN STRESS PERIOD    1
  ---------------------------------------------------------------------------

                1               2               3               4               5               6               7               8               9              10
               11              12              13              14              15              16              17              18              19              20
               21              22              23              24              25
 ................................................................................................................................................................
   1  *************** *************** *************** *************** *************** *************** *************** *************** *************** ***************
      *************** *************** *************** *************** *************** *************** *************** *************** *************** ***************
      *************** *************** *************** *************** ***************
1
  CONCENTRATION IN LAYER   7 AT END OF TIME STEP   2 IN STRESS PERIOD    1
  ---------------------------------------------------------------------------

                1               2               3               4               5               6               7               8               9              10
               11              12              13              14              15              16              17              18              19              20
               21              22              23              24              25
 ................................................................................................................................................................
   1  *************** *************** *************** *************** *************** *************** *************** *************** *************** ***************
      *************** *************** *************** *************** *************** *************** *************** *************** *************** ***************
      *************** *************** *************** *************** ***************
1
  CONCENTRATION IN LAYER   8 AT END OF TIME STEP   2 IN STRESS PERIOD    1
  ---------------------------------------------------------------------------

                1               2               3               4               5               6               7               8               9              10
               11              12              13              14              15              16              17              18              19              20
               21              22              23              24              25
 ................................................................................................................................................................
   1  *************** *************** *************** *************** *************** *************** *************** *************** *************** ***************
      *************** *************** *************** *************** *************** *************** *************** *************** *************** ***************
      *************** *************** *************** *************** ***************
1
  CONCENTRATION IN LAYER   9 AT END OF TIME STEP   2 IN STRESS PERIOD    1
  ---------------------------------------------------------------------------

                1               2               3               4               5               6               7               8               9              10
               11              12              13              14              15              16              17              18              19              20
               21              22              23              24              25
 ................................................................................................................................................................
   1  *************** *************** *************** *************** *************** *************** *************** *************** *************** ***************
      *************** *************** *************** *************** *************** *************** *************** *************** *************** ***************
      *************** *************** *************** *************** ***************
1
  CONCENTRATION IN LAYER  10 AT END OF TIME STEP   2 IN STRESS PERIOD    1
  ---------------------------------------------------------------------------

                1               2               3               4               5               6               7               8               9              10
               11              12              13              14              15              16              17              18              19              20
               21              22              23              24              25
 ................................................................................................................................................................
   1  *************** *************** *************** *************** *************** *************** *************** *************** *************** ***************
      *************** *************** *************** *************** *************** *************** *************** *************** *************** ***************
      *************** *************** *************** *************** ***************

 CONCENTRATION WILL BE SAVED ON UNIT 1993 AT END OF TIME STEP    2, STRESS PERIOD    1


  MASS BUDGET FOR ENTIRE MODEL AT END OF TIME STEP    2, STRESS PERIOD   1
  ---------------------------------------------------------------------------------------------------

     CUMULATIVE MASS      M       RATES FOR THIS TIME STEP      M/T          PACKAGE NAME    
     ------------------                 ------------------------                     ----------------

           IN:                                      IN:
           ---                                      ---
     STORAGE-AQUEOUS =       2.7186E-10       STORAGE-AQUEOUS =       7.9086E-12     MST                              
                 CHD =           5.3591                   CHD =           0.2680     SSM_CHD                          
                 CNC =       1.4498E-05                   CNC =       7.2539E-07     CNC                              

            TOTAL IN =           5.3591              TOTAL IN =           0.2680

          OUT:                                     OUT:
          ----                                     ----
     STORAGE-AQUEOUS =           4.0913       STORAGE-AQUEOUS =           0.2046     MST                              
                 CHD =       6.2355E-04                   CHD =       3.1176E-05     SSM_CHD                          
                 CNC =           1.2672                   CNC =       6.3356E-02     CNC                              

           TOTAL OUT =           5.3591             TOTAL OUT =           0.2680

            IN - OUT =       4.1494E-09              IN - OUT =       2.0747E-10

 PERCENT DISCREPANCY =           0.00     PERCENT DISCREPANCY =           0.00




         TIME SUMMARY AT END OF TIME STEP    2 IN STRESS PERIOD    1
                    SECONDS     MINUTES      HOURS       DAYS        YEARS
                    -----------------------------------------------------------
   TIME STEP LENGTH 8.64000E+05  14400.      240.00      10.000     2.73785E-02
 STRESS PERIOD TIME 1.72800E+06  28800.      480.00      20.000     5.47570E-02
         TOTAL TIME 1.72800E+06  28800.      480.00      20.000     5.47570E-02


end timestep


start timestep kper="1" kstp="3" mode="normal"

 UBDSV06 SAVING  SOURCE-SINK MIX IN MODEL AL               PACKAGE AL              CONNECTED TO MODEL AL               PACKAGE SSM              ON UNIT   1992 AT TIME STEP      3, STRESS PERIOD      1
 UBDSV06 SAVING              CNC IN MODEL AL               PACKAGE AL              CONNECTED TO MODEL AL               PACKAGE CNC              ON UNIT   1992 AT TIME STEP      3, STRESS PERIOD      1

 SSM PACKAGE (SSM) FLOW RATES   PERIOD      1   STEP        3
 ------------------------------------------------------------------------------------------------
   NUMBER   CELLID                   BOUND Q        SSM CONC          RATE         PACKAGE NAME  
 ------------------------------------------------------------------------------------------------
     1      (1,1,1)               2.08333325E-02  4.2872850       8.93184338E-02       CHD       
     2      (2,1,1)               2.08333325E-02  4.2872850       8.93184338E-02       CHD       
     3      (3,1,1)               2.08333325E-02  4.2872850       8.93184338E-02       CHD       
     4      (4,1,1)               0.0000000       0.0000000       0.0000000            CHD       
     5      (5,1,1)               0.0000000       0.0000000       0.0000000            CHD       
     6      (6,1,1)               0.0000000       0.0000000       0.0000000            CHD       
     7      (7,1,1)               0.0000000       0.0000000       0.0000000            CHD       
     8      (8,1,1)               0.0000000       0.0000000       0.0000000            CHD       
     9      (9,1,1)               0.0000000       0.0000000       0.0000000            CHD       
     10     (10,1,1)              0.0000000       0.0000000       0.0000000            CHD       
     11     (1,1,25)             -2.08333362E-02  1.49644816E-04 -3.11760077E-06       CHD       
     12     (2,1,25)             -2.08333362E-02  1.49644816E-04 -3.11760077E-06       CHD       
     13     (3,1,25)             -2.08333362E-02  1.49644816E-04 -3.11760077E-06       CHD       
     14     (4,1,25)             -2.08333362E-02  1.49644816E-04 -3.11760077E-06       CHD       
     15     (5,1,25)             -2.08333362E-02  1.49644816E-04 -3.11760077E-06       CHD       
     16     (6,1,25)             -2.08333362E-02  1.49644816E-04 -3.11760077E-06       CHD       
     17     (7,1,25)             -2.08333362E-02  1.49644816E-04 -3.11760077E-06       CHD       
     18     (8,1,25)             -2.08333362E-02  1.49644816E-04 -3.11760077E-06       CHD       
     19     (9,1,25)             -2.08333362E-02  1.49644816E-04 -3.11760077E-06       CHD       
     20     (10,1,25)            -2.08333362E-02  1.49644816E-04 -3.11760077E-06       CHD       
 ------------------------------------------------------------------------------------------------




 CNC PACKAGE (CNC) FLOW RATES   PERIOD      1   STEP        3
 -----------------------------------------------
   NUMBER   CELLID                    RATE      
 -----------------------------------------------
     1      (4,1,1)              -6.31909816E-02
     2      (5,1,1)              -1.03163370E-04
     3      (6,1,1)              -4.03815443E-05
     4      (7,1,1)              -1.50087829E-05
     5      (8,1,1)              -4.76128924E-06
     6      (9,1,1)              -6.93142420E-07
     7      (10,1,1)              7.27162612E-07
 -----------------------------------------------



1
  CONCENTRATION IN LAYER   1 AT END OF TIME STEP   3 IN STRESS PERIOD    1
  ---------------------------------------------------------------------------

                1               2               3               4               5               6               7               8               9              10
               11              12              13              14              15              16              17              18              19              20
               21              22              23              24              25
 ................................................................................................................................................................
   1  *************** *************** *************** *************** *************** *************** *************** *************** *************** ***************
      *************** *************** *************** *************** *************** *************** *************** *************** *************** ***************
      *************** *************** *************** *************** ***************
1
  CONCENTRATION IN LAYER   2 AT END OF TIME STEP   3 IN STRESS PERIOD    1
  ---------------------------------------------------------------------------

                1               2               3               4               5               6               7               8               9              10
               11              12              13              14              15              16              17              18              19              20
               21              22              23              24              25
 ................................................................................................................................................................
   1  *************** *************** *************** *************** *************** *************** *************** *************** *************** ***************
      *************** *************** *************** *************** *************** *************** *************** *************** *************** ***************
      *************** *************** *************** *************** ***************
1
  CONCENTRATION IN LAYER   3 AT END OF TIME STEP   3 IN STRESS PERIOD    1
  ---------------------------------------------------------------------------

                1               2               3               4               5               6               7               8               9              10
               11              12              13              14              15              16              17              18              19              20
               21              22              23              24              25
 ................................................................................................................................................................
   1  *************** *************** *************** *************** *************** *************** *************** *************** *************** ***************
      *************** *************** *************** *************** *************** *************** *************** *************** *************** ***************
      *************** *************** *************** *************** ***************
1
  CONCENTRATION IN LAYER   4 AT END OF TIME STEP   3 IN STRESS PERIOD    1
  ---------------------------------------------------------------------------

                1               2               3               4               5               6               7               8               9              10
               11              12              13              14              15              16              17              18              19              20
               21              22              23              24              25
 ................................................................................................................................................................
   1  *************** *************** *************** *************** *************** *************** *************** *************** *************** ***************
      *************** *************** *************** *************** *************** *************** *************** *************** *************** ***************
      *************** *************** *************** *************** ***************
1
  CONCENTRATION IN LAYER   5 AT END OF TIME STEP   3 IN STRESS PERIOD    1
  ---------------------------------------------------------------------------

                1               2               3               4               5               6               7               8               9              10
               11              12              13              14              15              16              17              18              19              20
               21              22              23              24              25
 ................................................................................................................................................................
   1  *************** *************** *************** *************** *************** *************** *************** *************** *************** ***************
      *************** *************** *************** *************** *************** *************** *************** *************** *************** ***************
      *************** *************** *************** *************** ***************
1
  CONCENTRATION IN LAYER   6 AT END OF TIME STEP   3 IN STRESS PERIOD    1
  ---------------------------------------------------------------------------

                1               2               3               4               5               6               7               8               9              10
               11              12              13              14              15              16              17              18              19              20
               21              22              23              24              25
 ................................................................................................................................................................
   1  *************** *************** *************** *************** *************** *************** *************** *************** *************** ***************
      *************** *************** *************** *************** *************** *************** *************** *************** *************** ***************
      *************** *************** *************** *************** ***************
1
  CONCENTRATION IN LAYER   7 AT END OF TIME STEP   3 IN STRESS PERIOD    1
  ---------------------------------------------------------------------------

                1               2               3               4               5               6               7               8               9              10
               11              12              13              14              15              16              17              18              19              20
               21              22              23              24              25
 ................................................................................................................................................................
   1  *************** *************** *************** *************** *************** *************** *************** *************** *************** ***************
      *************** *************** *************** *************** *************** *************** *************** *************** *************** ***************
      *************** *************** *************** *************** ***************
1
  CONCENTRATION IN LAYER   8 AT END OF TIME STEP   3 IN STRESS PERIOD    1
  ---------------------------------------------------------------------------

                1               2               3               4               5               6               7               8               9              10
               11              12              13              14              15              16              17              18              19              20
               21              22              23              24              25
 ................................................................................................................................................................
   1  *************** *************** *************** *************** *************** *************** *************** *************** *************** ***************
      *************** *************** *************** *************** *************** *************** *************** *************** *************** ***************
      *************** *************** *************** *************** ***************
1
  CONCENTRATION IN LAYER   9 AT END OF TIME STEP   3 IN STRESS PERIOD    1
  ---------------------------------------------------------------------------

                1               2               3               4               5               6               7               8               9              10
               11              12              13              14              15              16              17              18              19              20
               21              22              23              24              25
 ................................................................................................................................................................
   1  *************** *************** *************** *************** *************** *************** *************** *************** *************** ***************
      *************** *************** *************** *************** *************** *************** *************** *************** *************** ***************
      *************** *************** *************** *************** ***************
1
  CONCENTRATION IN LAYER  10 AT END OF TIME STEP   3 IN STRESS PERIOD    1
  ---------------------------------------------------------------------------

                1               2               3               4               5               6               7               8               9              10
               11              12              13              14              15              16              17              18              19              20
               21              22              23              24              25
 ................................................................................................................................................................
   1  *************** *************** *************** *************** *************** *************** *************** *************** *************** ***************
      *************** *************** *************** *************** *************** *************** *************** *************** *************** ***************
      *************** *************** *************** *************** ***************

 CONCENTRATION WILL BE SAVED ON UNIT 1993 AT END OF TIME STEP    3, STRESS PERIOD    1


  MASS BUDGET FOR ENTIRE MODEL AT END OF TIME STEP    3, STRESS PERIOD   1
  ---------------------------------------------------------------------------------------------------

     CUMULATIVE MASS      M       RATES FOR THIS TIME STEP      M/T          PACKAGE NAME    
     ------------------                 ------------------------                     ----------------

           IN:                                      IN:
           ---                                      ---
     STORAGE-AQUEOUS =       3.3858E-10       STORAGE-AQUEOUS =       6.6718E-12     MST                              
                 CHD =           8.0387                   CHD =           0.2680     SSM_CHD                          
                 CNC =       2.1770E-05                   CNC =       7.2716E-07     CNC                              

            TOTAL IN =           8.0387              TOTAL IN =           0.2680

          OUT:                                     OUT:
          ----                                     ----
     STORAGE-AQUEOUS =           6.1370       STORAGE-AQUEOUS =           0.2046     MST                              
                 CHD =       9.3531E-04                   CHD =       3.1176E-05     SSM_CHD                          
                 CNC =           1.9007                   CNC =       6.3355E-02     CNC                              

           TOTAL OUT =           8.0387             TOTAL OUT =           0.2680

            IN - OUT =       6.2239E-09              IN - OUT =       2.0744E-10

 PERCENT DISCREPANCY =           0.00     PERCENT DISCREPANCY =           0.00




         TIME SUMMARY AT END OF TIME STEP    3 IN STRESS PERIOD    1
                    SECONDS     MINUTES      HOURS       DAYS        YEARS
                    -----------------------------------------------------------
   TIME STEP LENGTH 8.64000E+05  14400.      240.00      10.000     2.73785E-02
 STRESS PERIOD TIME 2.59200E+06  43200.      720.00      30.000     8.21355E-02
         TOTAL TIME 2.59200E+06  43200.      720.00      30.000     8.21355E-02


end timestep


start timestep kper="1" kstp="4" mode="normal"

 UBDSV06 SAVING  SOURCE-SINK MIX IN MODEL AL               PACKAGE AL              CONNECTED TO MODEL AL               PACKAGE SSM              ON UNIT   1992 AT TIME STEP      4, STRESS PERIOD      1
 UBDSV06 SAVING              CNC IN MODEL AL               PACKAGE AL              CONNECTED TO MODEL AL               PACKAGE CNC              ON UNIT   1992 AT TIME STEP      4, STRESS PERIOD      1

 SSM PACKAGE (SSM) FLOW RATES   PERIOD      1   STEP        4
 ------------------------------------------------------------------------------------------------
   NUMBER   CELLID                   BOUND Q        SSM CONC          RATE         PACKAGE NAME  
 ------------------------------------------------------------------------------------------------
     1      (1,1,1)               2.08333321E-02  4.2872850       8.93184321E-02       CHD       
     2      (2,1,1)               2.08333321E-02  4.2872850       8.93184321E-02       CHD       
     3      (3,1,1)               2.08333321E-02  4.2872850       8.93184321E-02       CHD       
     4      (4,1,1)               0.0000000       0.0000000       0.0000000            CHD       
     5      (5,1,1)               0.0000000       0.0000000       0.0000000            CHD       
     6      (6,1,1)               0.0000000       0.0000000       0.0000000            CHD       
     7      (7,1,1)               0.0000000       0.0000000       0.0000000            CHD       
     8      (8,1,1)               0.0000000       0.0000000       0.0000000            CHD       
     9      (9,1,1)               0.0000000       0.0000000       0.0000000            CHD       
     10     (10,1,1)              0.0000000       0.0000000       0.0000000            CHD       
     11     (1,1,25)             -2.08333356E-02  1.49644816E-04 -3.11760068E-06       CHD       
     12     (2,1,25)             -2.08333356E-02  1.49644816E-04 -3.11760068E-06       CHD       
     13     (3,1,25)             -2.08333356E-02  1.49644816E-04 -3.11760068E-06       CHD       
     14     (4,1,25)             -2.08333356E-02  1.49644816E-04 -3.11760068E-06       CHD       
     15     (5,1,25)             -2.08333356E-02  1.49644816E-04 -3.11760068E-06       CHD       
     16     (6,1,25)             -2.08333356E-02  1.49644816E-04 -3.11760068E-06       CHD       
     17     (7,1,25)             -2.08333356E-02  1.49644816E-04 -3.11760068E-06       CHD       
     18     (8,1,25)             -2.08333356E-02  1.49644816E-04 -3.11760068E-06       CHD       
     19     (9,1,25)             -2.08333356E-02  1.49644816E-04 -3.11760068E-06       CHD       
     20     (10,1,25)            -2.08333356E-02  1.49644816E-04 -3.11760068E-06       CHD       
 ------------------------------------------------------------------------------------------------




 CNC PACKAGE (CNC) FLOW RATES   PERIOD      1   STEP        4
 -----------------------------------------------
   NUMBER   CELLID                    RATE      
 -----------------------------------------------
     1      (4,1,1)              -6.31903230E-02
     2      (5,1,1)              -1.03125128E-04
     3      (6,1,1)              -4.03581472E-05
     4      (7,1,1)              -1.49951263E-05
     5      (8,1,1)              -4.75349033E-06
     6      (9,1,1)              -6.88522700E-07
     7      (10,1,1)              7.30407520E-07
 -----------------------------------------------



1
  CONCENTRATION IN LAYER   1 AT END OF TIME STEP   4 IN STRESS PERIOD    1
  ---------------------------------------------------------------------------

                1               2               3               4               5               6               7               8               9              10
               11              12              13              14              15              16              17              18              19              20
               21              22              23              24              25
 ................................................................................................................................................................
   1  *************** *************** *************** *************** *************** *************** *************** *************** *************** ***************
      *************** *************** *************** *************** *************** *************** *************** *************** *************** ***************
      *************** *************** *************** *************** ***************
1
  CONCENTRATION IN LAYER   2 AT END OF TIME STEP   4 IN STRESS PERIOD    1
  ---------------------------------------------------------------------------

                1               2               3               4               5               6               7               8               9              10
               11              12              13              14              15              16              17              18              19              20
               21              22              23              24              25
 ................................................................................................................................................................
   1  *************** *************** *************** *************** *************** *************** *************** *************** *************** ***************
      *************** *************** *************** *************** *************** *************** *************** *************** *************** ***************
      *************** *************** *************** *************** ***************
1
  CONCENTRATION IN LAYER   3 AT END OF TIME STEP   4 IN STRESS PERIOD    1
  ---------------------------------------------------------------------------

                1               2               3               4               5               6               7               8               9              10
               11              12              13              14              15              16              17              18              19              20
               21              22              23              24              25
 ................................................................................................................................................................
   1  *************** *************** *************** *************** *************** *************** *************** *************** *************** ***************
      *************** *************** *************** *************** *************** *************** *************** *************** *************** ***************
      *************** *************** *************** *************** ***************
1
  CONCENTRATION IN LAYER   4 AT END OF TIME STEP   4 IN STRESS PERIOD    1
  ---------------------------------------------------------------------------

                1               2               3               4               5               6               7               8               9              10
               11              12              13              14              15              16              17              18              19              20
               21              22              23              24              25
 ................................................................................................................................................................
   1  *************** *************** *************** *************** *************** *************** *************** *************** *************** ***************
      *************** *************** *************** *************** *************** *************** *************** *************** *************** ***************
      *************** *************** *************** *************** ***************
1
  CONCENTRATION IN LAYER   5 AT END OF TIME STEP   4 IN STRESS PERIOD    1
  ---------------------------------------------------------------------------

                1               2               3               4               5               6               7               8               9              10
               11              12              13              14              15              16              17              18              19              20
               21              22              23              24              25
 ................................................................................................................................................................
   1  *************** *************** *************** *************** *************** *************** *************** *************** *************** ***************
      *************** *************** *************** *************** *************** *************** *************** *************** *************** ***************
      *************** *************** *************** *************** ***************
1
  CONCENTRATION IN LAYER   6 AT END OF TIME STEP   4 IN STRESS PERIOD    1
  ---------------------------------------------------------------------------

                1               2               3               4               5               6               7               8               9              10
               11              12              13              14              15              16              17              18              19              20
               21              22              23              24              25
 ................................................................................................................................................................
   1  *************** *************** *************** *************** *************** *************** *************** *************** *************** ***************
      *************** *************** *************** *************** *************** *************** *************** *************** *************** ***************
      *************** *************** *************** *************** ***************
1
  CONCENTRATION IN LAYER   7 AT END OF TIME STEP   4 IN STRESS PERIOD    1
  ---------------------------------------------------------------------------

                1               2               3               4               5               6               7               8               9              10
               11              12              13              14              15              16              17              18              19              20
               21              22              23              24              25
 ................................................................................................................................................................
   1  *************** *************** *************** *************** *************** *************** *************** *************** *************** ***************
      *************** *************** *************** *************** *************** *************** *************** *************** *************** ***************
      *************** *************** *************** *************** ***************
1
  CONCENTRATION IN LAYER   8 AT END OF TIME STEP   4 IN STRESS PERIOD    1
  ---------------------------------------------------------------------------

                1               2               3               4               5               6               7               8               9              10
               11              12              13              14              15              16              17              18              19              20
               21              22              23              24              25
 ................................................................................................................................................................
   1  *************** *************** *************** *************** *************** *************** *************** *************** *************** ***************
      *************** *************** *************** *************** *************** *************** *************** *************** *************** ***************
      *************** *************** *************** *************** ***************
1
  CONCENTRATION IN LAYER   9 AT END OF TIME STEP   4 IN STRESS PERIOD    1
  ---------------------------------------------------------------------------

                1               2               3               4               5               6               7               8               9              10
               11              12              13              14              15              16              17              18              19              20
               21              22              23              24              25
 ................................................................................................................................................................
   1  *************** *************** *************** *************** *************** *************** *************** *************** *************** ***************
      *************** *************** *************** *************** *************** *************** *************** *************** *************** ***************
      *************** *************** *************** *************** ***************
1
  CONCENTRATION IN LAYER  10 AT END OF TIME STEP   4 IN STRESS PERIOD    1
  ---------------------------------------------------------------------------

                1               2               3               4               5               6               7               8               9              10
               11              12              13              14              15              16              17              18              19              20
               21              22              23              24              25
 ................................................................................................................................................................
   1  *************** *************** *************** *************** *************** *************** *************** *************** *************** ***************
      *************** *************** *************** *************** *************** *************** *************** *************** *************** ***************
      *************** *************** *************** *************** ***************

 CONCENTRATION WILL BE SAVED ON UNIT 1993 AT END OF TIME STEP    4, STRESS PERIOD    1


  MASS BUDGET FOR ENTIRE MODEL AT END OF TIME STEP    4, STRESS PERIOD   1
  ---------------------------------------------------------------------------------------------------

     CUMULATIVE MASS      M       RATES FOR THIS TIME STEP      M/T          PACKAGE NAME    
     ------------------                 ------------------------                     ----------------

           IN:                                      IN:
           ---                                      ---
     STORAGE-AQUEOUS =       4.0423E-10       STORAGE-AQUEOUS =       6.5653E-12     MST                              
                 CHD =          10.7182                   CHD =           0.2680     SSM_CHD                          
                 CNC =       2.9074E-05                   CNC =       7.3041E-07     CNC                              

            TOTAL IN =          10.7182              TOTAL IN =           0.2680

          OUT:                                     OUT:
          ----                                     ----
     STORAGE-AQUEOUS =           8.1827       STORAGE-AQUEOUS =           0.2046     MST                              
                 CHD =       1.2471E-03                   CHD =       3.1176E-05     SSM_CHD                          
                 CNC =           2.5343                   CNC =       6.3354E-02     CNC                              

           TOTAL OUT =          10.7182             TOTAL OUT =           0.2680

            IN - OUT =       8.2979E-09              IN - OUT =       2.0741E-10

 PERCENT DISCREPANCY =           0.00     PERCENT DISCREPANCY =           0.00




         TIME SUMMARY AT END OF TIME STEP    4 IN STRESS PERIOD    1
                    SECONDS     MINUTES      HOURS       DAYS        YEARS
                    -----------------------------------------------------------
   TIME STEP LENGTH 8.64000E+05  14400.      240.00      10.000     2.73785E-02
 STRESS PERIOD TIME 3.45600E+06  57600.      960.00      40.000     0.10951    
         TOTAL TIME 3.45600E+06  57600.      960.00      40.000     0.10951    


end timestep


start timestep kper="1" kstp="5" mode="normal"

 UBDSV06 SAVING  SOURCE-SINK MIX IN MODEL AL               PACKAGE AL              CONNECTED TO MODEL AL               PACKAGE SSM              ON UNIT   1992 AT TIME STEP      5, STRESS PERIOD      1
 UBDSV06 SAVING              CNC IN MODEL AL               PACKAGE AL              CONNECTED TO MODEL AL               PACKAGE CNC              ON UNIT   1992 AT TIME STEP      5, STRESS PERIOD      1

 SSM PACKAGE (SSM) FLOW RATES   PERIOD      1   STEP        5
 ------------------------------------------------------------------------------------------------
   NUMBER   CELLID                   BOUND Q        SSM CONC          RATE         PACKAGE NAME  
 ------------------------------------------------------------------------------------------------
     1      (1,1,1)               2.08333321E-02  4.2872850       8.93184320E-02       CHD       
     2      (2,1,1)               2.08333321E-02  4.2872850       8.93184320E-02       CHD       
     3      (3,1,1)               2.08333321E-02  4.2872850       8.93184320E-02       CHD       
     4      (4,1,1)               0.0000000       0.0000000       0.0000000            CHD       
     5      (5,1,1)               0.0000000       0.0000000       0.0000000            CHD       
     6      (6,1,1)               0.0000000       0.0000000       0.0000000            CHD       
     7      (7,1,1)               0.0000000       0.0000000       0.0000000            CHD       
     8      (8,1,1)               0.0000000       0.0000000       0.0000000            CHD       
     9      (9,1,1)               0.0000000       0.0000000       0.0000000            CHD       
     10     (10,1,1)              0.0000000       0.0000000       0.0000000            CHD       
     11     (1,1,25)             -2.08333353E-02  1.49644816E-04 -3.11760064E-06       CHD       
[...]
               21              22              23              24              25
 ................................................................................................................................................................
   1  *************** *************** *************** *************** *************** *************** *************** *************** *************** ***************
      *************** *************** *************** *************** *************** *************** *************** *************** *************** ***************
      *************** *************** *************** *************** ***************

 CONCENTRATION WILL BE SAVED ON UNIT 1993 AT END OF TIME STEP  199, STRESS PERIOD    1


  MASS BUDGET FOR ENTIRE MODEL AT END OF TIME STEP  199, STRESS PERIOD   1
  ---------------------------------------------------------------------------------------------------

     CUMULATIVE MASS      M       RATES FOR THIS TIME STEP      M/T          PACKAGE NAME    
     ------------------                 ------------------------                     ----------------

           IN:                                      IN:
           ---                                      ---
     STORAGE-AQUEOUS =       1.0609E-02       STORAGE-AQUEOUS =       1.2219E-06     MST                              
                 CHD =         533.2311                   CHD =           0.2680     SSM_CHD                          
                 CNC =       1.0961E-03                   CNC =           0.0000     CNC                              

            TOTAL IN =         533.2428              TOTAL IN =           0.2680

          OUT:                                     OUT:
          ----                                     ----
     STORAGE-AQUEOUS =         393.0536       STORAGE-AQUEOUS =           0.1792     MST                              
                 CHD =       5.8376E-02                   CHD =       2.3329E-05     SSM_CHD                          
                 CNC =         140.1307                   CNC =       8.8714E-02     CNC                              

           TOTAL OUT =         533.2428             TOTAL OUT =           0.2680

            IN - OUT =       3.4587E-07              IN - OUT =       1.3214E-10

 PERCENT DISCREPANCY =           0.00     PERCENT DISCREPANCY =           0.00




         TIME SUMMARY AT END OF TIME STEP  199 IN STRESS PERIOD    1
                    SECONDS     MINUTES      HOURS       DAYS        YEARS
                    -----------------------------------------------------------
   TIME STEP LENGTH 8.64000E+05  14400.      240.00      10.000     2.73785E-02
 STRESS PERIOD TIME 1.71936E+08 2.86560E+06  47760.      1990.0      5.4483    
         TOTAL TIME 1.71936E+08 2.86560E+06  47760.      1990.0      5.4483    


end timestep


start timestep kper="1" kstp="200" mode="normal"

 UBDSV06 SAVING  SOURCE-SINK MIX IN MODEL AL               PACKAGE AL              CONNECTED TO MODEL AL               PACKAGE SSM              ON UNIT   1992 AT TIME STEP    200, STRESS PERIOD      1
 UBDSV06 SAVING              CNC IN MODEL AL               PACKAGE AL              CONNECTED TO MODEL AL               PACKAGE CNC              ON UNIT   1992 AT TIME STEP    200, STRESS PERIOD      1

 SSM PACKAGE (SSM) FLOW RATES   PERIOD      1   STEP      200
 ------------------------------------------------------------------------------------------------
   NUMBER   CELLID                   BOUND Q        SSM CONC          RATE         PACKAGE NAME  
 ------------------------------------------------------------------------------------------------
     1      (1,1,1)               2.08333330E-02  4.2872850       8.93184358E-02       CHD       
     2      (2,1,1)               2.08333330E-02  4.2872850       8.93184358E-02       CHD       
     3      (3,1,1)               2.08333330E-02  4.2872850       8.93184358E-02       CHD       
     4      (4,1,1)               0.0000000       0.0000000       0.0000000            CHD       
     5      (5,1,1)               0.0000000       0.0000000       0.0000000            CHD       
     6      (6,1,1)               0.0000000       0.0000000       0.0000000            CHD       
     7      (7,1,1)               0.0000000       0.0000000       0.0000000            CHD       
     8      (8,1,1)               0.0000000       0.0000000       0.0000000            CHD       
     9      (9,1,1)               0.0000000       0.0000000       0.0000000            CHD       
     10     (10,1,1)              0.0000000       0.0000000       0.0000000            CHD       
     11     (1,1,25)             -2.08333337E-02  1.11730744E-04 -2.32772386E-06       CHD       
     12     (2,1,25)             -2.08333337E-02  1.11730742E-04 -2.32772383E-06       CHD       
     13     (3,1,25)             -2.08333337E-02  1.11730740E-04 -2.32772379E-06       CHD       
     14     (4,1,25)             -2.08333337E-02  1.11730738E-04 -2.32772375E-06       CHD       
     15     (5,1,25)             -2.08333337E-02  1.11730736E-04 -2.32772370E-06       CHD       
     16     (6,1,25)             -2.08333337E-02  1.11730733E-04 -2.32772365E-06       CHD       
     17     (7,1,25)             -2.08333337E-02  1.11730731E-04 -2.32772360E-06       CHD       
     18     (8,1,25)             -2.08333337E-02  1.11730729E-04 -2.32772355E-06       CHD       
     19     (9,1,25)             -2.08333337E-02  1.11730727E-04 -2.32772351E-06       CHD       
     20     (10,1,25)            -2.08333337E-02  1.11730724E-04 -2.32772346E-06       CHD       
 ------------------------------------------------------------------------------------------------




 CNC PACKAGE (CNC) FLOW RATES   PERIOD      1   STEP      200
 -----------------------------------------------
   NUMBER   CELLID                    RATE      
 -----------------------------------------------
     1      (4,1,1)              -8.84488889E-02
     2      (5,1,1)              -1.70693952E-04
     3      (6,1,1)              -6.74357548E-05
     4      (7,1,1)              -2.59431291E-05
     5      (8,1,1)              -9.20206171E-06
     6      (9,1,1)              -2.56823850E-06
     7      (10,1,1)             -2.54625035E-07
 -----------------------------------------------



1
  CONCENTRATION IN LAYER   1 AT END OF TIME STEP 200 IN STRESS PERIOD    1
  ---------------------------------------------------------------------------

                1               2               3               4               5               6               7               8               9              10
               11              12              13              14              15              16              17              18              19              20
               21              22              23              24              25
 ................................................................................................................................................................
   1  .8149676569     *************** *************** *************** *************** *************** *************** *************** *************** ***************
      *************** *************** *************** *************** *************** *************** *************** *************** *************** ***************
      *************** *************** *************** *************** ***************
1
  CONCENTRATION IN LAYER   2 AT END OF TIME STEP 200 IN STRESS PERIOD    1
  ---------------------------------------------------------------------------

                1               2               3               4               5               6               7               8               9              10
               11              12              13              14              15              16              17              18              19              20
               21              22              23              24              25
 ................................................................................................................................................................
   1  .5235448136     *************** *************** *************** *************** *************** *************** *************** *************** ***************
      *************** *************** *************** *************** *************** *************** *************** *************** *************** ***************
      *************** *************** *************** *************** ***************
1
  CONCENTRATION IN LAYER   3 AT END OF TIME STEP 200 IN STRESS PERIOD    1
  ---------------------------------------------------------------------------

                1               2               3               4               5               6               7               8               9              10
               11              12              13              14              15              16              17              18              19              20
               21              22              23              24              25
 ................................................................................................................................................................
   1  *************** *************** *************** *************** *************** *************** *************** *************** *************** ***************
      *************** *************** *************** *************** *************** *************** *************** *************** *************** ***************
      *************** *************** *************** *************** ***************
1
  CONCENTRATION IN LAYER   4 AT END OF TIME STEP 200 IN STRESS PERIOD    1
  ---------------------------------------------------------------------------

                1               2               3               4               5               6               7               8               9              10
               11              12              13              14              15              16              17              18              19              20
               21              22              23              24              25
 ................................................................................................................................................................
   1  *************** *************** *************** *************** *************** *************** *************** *************** *************** ***************
      *************** *************** *************** *************** *************** *************** *************** *************** *************** ***************
      *************** *************** *************** *************** ***************
1
  CONCENTRATION IN LAYER   5 AT END OF TIME STEP 200 IN STRESS PERIOD    1
  ---------------------------------------------------------------------------

                1               2               3               4               5               6               7               8               9              10
               11              12              13              14              15              16              17              18              19              20
               21              22              23              24              25
 ................................................................................................................................................................
   1  *************** *************** *************** *************** *************** *************** *************** *************** *************** ***************
      *************** *************** *************** *************** *************** *************** *************** *************** *************** ***************
      *************** *************** *************** *************** ***************
1
  CONCENTRATION IN LAYER   6 AT END OF TIME STEP 200 IN STRESS PERIOD    1
  ---------------------------------------------------------------------------

                1               2               3               4               5               6               7               8               9              10
               11              12              13              14              15              16              17              18              19              20
               21              22              23              24              25
 ................................................................................................................................................................
   1  *************** *************** *************** *************** *************** *************** *************** *************** *************** ***************
      *************** *************** *************** *************** *************** *************** *************** *************** *************** ***************
      *************** *************** *************** *************** ***************
1
  CONCENTRATION IN LAYER   7 AT END OF TIME STEP 200 IN STRESS PERIOD    1
  ---------------------------------------------------------------------------

                1               2               3               4               5               6               7               8               9              10
               11              12              13              14              15              16              17              18              19              20
               21              22              23              24              25
 ................................................................................................................................................................
   1  *************** *************** *************** *************** *************** *************** *************** *************** *************** ***************
      *************** *************** *************** *************** *************** *************** *************** *************** *************** ***************
      *************** *************** *************** *************** ***************
1
  CONCENTRATION IN LAYER   8 AT END OF TIME STEP 200 IN STRESS PERIOD    1
  ---------------------------------------------------------------------------

                1               2               3               4               5               6               7               8               9              10
               11              12              13              14              15              16              17              18              19              20
               21              22              23              24              25
 ................................................................................................................................................................
   1  *************** *************** *************** *************** *************** *************** *************** *************** *************** ***************
      *************** *************** *************** *************** *************** *************** *************** *************** *************** ***************
      *************** *************** *************** *************** ***************
1
  CONCENTRATION IN LAYER   9 AT END OF TIME STEP 200 IN STRESS PERIOD    1
  ---------------------------------------------------------------------------

                1               2               3               4               5               6               7               8               9              10
               11              12              13              14              15              16              17              18              19              20
               21              22              23              24              25
 ................................................................................................................................................................
   1  *************** *************** *************** *************** *************** *************** *************** *************** *************** ***************
      *************** *************** *************** *************** *************** *************** *************** *************** *************** ***************
      *************** *************** *************** *************** ***************
1
  CONCENTRATION IN LAYER  10 AT END OF TIME STEP 200 IN STRESS PERIOD    1
  ---------------------------------------------------------------------------

                1               2               3               4               5               6               7               8               9              10
               11              12              13              14              15              16              17              18              19              20
               21              22              23              24              25
 ................................................................................................................................................................
   1  *************** *************** *************** *************** *************** *************** *************** *************** *************** ***************
      *************** *************** *************** *************** *************** *************** *************** *************** *************** ***************
      *************** *************** *************** *************** ***************

 CONCENTRATION WILL BE SAVED ON UNIT 1993 AT END OF TIME STEP  200, STRESS PERIOD    1


  MASS BUDGET FOR ENTIRE MODEL AT END OF TIME STEP  200, STRESS PERIOD   1
  ---------------------------------------------------------------------------------------------------

     CUMULATIVE MASS      M       RATES FOR THIS TIME STEP      M/T          PACKAGE NAME    
     ------------------                 ------------------------                     ----------------

           IN:                                      IN:
           ---                                      ---
     STORAGE-AQUEOUS =       1.0621E-02       STORAGE-AQUEOUS =       1.1651E-06     MST                              
                 CHD =         535.9106                   CHD =           0.2680     SSM_CHD                          
                 CNC =       1.0961E-03                   CNC =           0.0000     CNC                              

            TOTAL IN =         535.9223              TOTAL IN =           0.2680

          OUT:                                     OUT:
          ----                                     ----
     STORAGE-AQUEOUS =         394.8457       STORAGE-AQUEOUS =           0.1792     MST                              
                 CHD =       5.8609E-02                   CHD =       2.3278E-05     SSM_CHD                          
                 CNC =         141.0180                   CNC =       8.8725E-02     CNC                              

           TOTAL OUT =         535.9223             TOTAL OUT =           0.2680

            IN - OUT =       3.4720E-07              IN - OUT =       1.3216E-10

 PERCENT DISCREPANCY =           0.00     PERCENT DISCREPANCY =           0.00




         TIME SUMMARY AT END OF TIME STEP  200 IN STRESS PERIOD    1
                    SECONDS     MINUTES      HOURS       DAYS        YEARS
                    -----------------------------------------------------------
   TIME STEP LENGTH 8.64000E+05  14400.      240.00      10.000     2.73785E-02
 STRESS PERIOD TIME 1.72800E+08 2.88000E+06  48000.      2000.0      5.4757    
         TOTAL TIME 1.72800E+08 2.88000E+06  48000.      2000.0      5.4757    


end timestep

