                                   MODFLOW 6
                U.S. GEOLOGICAL SURVEY MODULAR HYDROLOGIC MODEL
                       GROUNDWATER TRANSPORT MODEL (GWT)
                VERSION 6.5.0.dev0+prt (preliminary) 10/07/2023
                               ***DEVELOP MODE***

   MODFLOW 6 compiled Oct 07 2023 02:19:02 with Intel(R) Fortran Intel(R) 64
   Compiler Classic for applications running on Intel(R) 64, Version 2021.7.0
                             Build 20220726_000000

This software is preliminary or provisional and is subject to 
revision. It is being provided to meet the need for timely best 
science. The software has not received final approval by the U.S. 
Geological Survey (USGS). No warranty, expressed or implied, is made 
by the USGS or the U.S. Government as to the functionality of the 
software and related material nor shall the fact of release 
constitute any such warranty. The software is provided on the 
condition that neither the USGS nor the U.S. Government shall be held 
liable for any damages resulting from the authorized or unauthorized 
use of the software.


As a work of the United States Government, this USGS product is 
in the public domain within the United States. You can copy, 
modify, distribute, and perform the work, even for commercial 
purposes, all without asking permission. Additionally, USGS 
waives copyright and related rights in the work worldwide 
through CC0 1.0 Universal Public Domain Dedication 
(https://creativecommons.org/publicdomain/zero/1.0/).

The following GNU Lesser General Public License (LGPL) libraries
are used in this USGS product:

    SPARSKIT version 2.0
      ilut, luson, and qsplit 
      (https://www-users.cse.umn.edu/~saad/software/SPARSKIT/)

    RCM - Reverse Cuthill McKee Ordering
      (https://people.math.sc.edu/Burkardt/f_src/rcm/rcm.html)

    BLAS - Basic Linear Algebra Subprograms Level 1
      (https://people.math.sc.edu/Burkardt/f_src/blas1_d/blas1_d.html)

    SPARSEKIT - Sparse Matrix Utility Package
      amux, dperm, dvperm, rperm, and cperm
      (https://people.sc.fsu.edu/~jburkardt/f77_src/sparsekit/sparsekit.html)

The following BSD-3 License libraries are used in this USGS product:

    Modern Fortran DAG Library
      Copyright (c) 2018, Jacob Williams
      All rights reserved.
      (https://github.com/jacobwilliams/daglib)

MODFLOW 6 compiler options: /Isrc\libmf6core.a.p /Isrc /I..\src
/Isrc\libmf6_external.a.p /MTd /nologo /warn:general /warn:truncated_source
/stand:f08 /Zi /traceback /O2 /fpe:0 /heap-arrays:0 /traceback /fpp
/Qdiag-disable:7416 /Qdiag-disable:7025 /Qdiag-disable:5268
/Fdsrc\libmf6core.a.p\Utilities_compilerversion.F90.pdb
/module:src\libmf6core.a.p
/Fosrc/libmf6core.a.p/Utilities_compilerversion.F90.obj /c

System command used to initiate simulation:
c:\Users\portega\anaconda3\envs\mf6rtm\python.exe -m ipykernel_launcher --f=c:\Users\portega\AppData\Roaming\jupyter\runtime\kernel-v2-17404w7nug58txkWt.json

MODFLOW was compiled using uniform precision.

Real Variables
  KIND: 8
  TINY (smallest non-zero value):    2.225074-308
  HUGE (largest value):    1.797693+308
  PRECISION: 15
  SIZE IN BITS: 64

Integer Variables
  KIND: 4
  HUGE (largest value): 2147483647
  SIZE IN BITS: 32

Long Integer Variables
  KIND: 8
  HUGE (largest value): 9223372036854775807
  SIZE IN BITS: 64

Logical Variables
  KIND: 4
  SIZE IN BITS: 32
 
 NAMEFILE OPTIONS:
 END NAMEFILE OPTIONS:

 DIS -- STRUCTURED GRID DISCRETIZATION PACKAGE, VERSION 2 : 3/27/2014 - INPUT READ FROM MEMPATH: __INPUT__/C/DIS                                   


 DSP-- DISPERSION PACKAGE, VERSION 1, 1/24/2018 INPUT READ FROM MEMPATH: __INPUT__/C/DSP                                   


 Setting Discretization Options
    Model length unit [0=UND, 1=FEET, 2=METERS, 3=CENTIMETERS] set as 2
 End Setting Discretization Options

 Setting Discretization Dimensions
    NLAY = 10
    NROW = 1
    NCOL = 25
 End Setting Discretization Dimensions

 Setting Discretization Griddata
    DELR set from input file
    DELC set from input file
    TOP set from input file
    BOTM set from input file
    IDOMAIN set from input file
 End Setting Discretization Griddata


 FMI -- FLOW MODEL INTERFACE,' VERSION 2, 8/17/2023
  FLOWS PROVIDED BY A GWF MODEL IN THIS SIMULATION

 ADV-- ADVECTION PACKAGE, VERSION 1, 8/25/2017 INPUT READ FROM UNIT 1310


 # File generated by Flopy version 3.5.0.dev0 on 07/12/2024 at 15:45:50.
 PROCESSING ADVECTION OPTIONS
    ADVECTION WEIGHTING SCHEME HAS BEEN SET TO: TVD
 END OF ADVECTION OPTIONS
 Setting DSP Options
    XT3D formulation [0=INACTIVE, 1=ACTIVE, 3=ACTIVE RHS] set to: 0
 End Setting DSP Options

 Setting DSP Griddata
    ALH set from input file
    ATH1 set from input file
    ATV set from input file
 End Setting DSP Griddata


 CNC   -- CNC PACKAGE, VERSION 8, 2/22/2014 INPUT READ FROM UNIT 1344
 # File generated by Flopy version 3.5.0.dev0 on 07/12/2024 at 15:45:50.

 PROCESSING CNC OPTIONS
    CNC FLOWS WILL BE PRINTED TO LISTING FILE.
    FLOWS WILL BE SAVED TO BUDGET FILE SPECIFIED IN OUTPUT CONTROL
 END OF CNC OPTIONS

 PROCESSING CNC DIMENSIONS
    MAXBOUND =       7
 END OF CNC DIMENSIONS

 IC -- INITIAL CONDITIONS PACKAGE, VERSION 8, 3/28/2015 INPUT READ FROM UNIT 1308
 # File generated by Flopy version 3.5.0.dev0 on 07/12/2024 at 15:45:50.
 PROCESSING GRIDDATA

 OPENED C.ic_strt_layer1.txt
 FILE TYPE:OPEN/CLOSE   UNIT 1994   STATUS:OLD                 
 FORMAT:FORMATTED              ACCESS:SEQUENTIAL          
 ACTION:READ                


 OPENED C.ic_strt_layer2.txt
 FILE TYPE:OPEN/CLOSE   UNIT 1995   STATUS:OLD                 
 FORMAT:FORMATTED              ACCESS:SEQUENTIAL          
 ACTION:READ                


 OPENED C.ic_strt_layer3.txt
 FILE TYPE:OPEN/CLOSE   UNIT 1996   STATUS:OLD                 
 FORMAT:FORMATTED              ACCESS:SEQUENTIAL          
 ACTION:READ                


 OPENED C.ic_strt_layer4.txt
 FILE TYPE:OPEN/CLOSE   UNIT 1997   STATUS:OLD                 
 FORMAT:FORMATTED              ACCESS:SEQUENTIAL          
 ACTION:READ                


 OPENED C.ic_strt_layer5.txt
 FILE TYPE:OPEN/CLOSE   UNIT 1998   STATUS:OLD                 
 FORMAT:FORMATTED              ACCESS:SEQUENTIAL          
 ACTION:READ                


 OPENED C.ic_strt_layer6.txt
 FILE TYPE:OPEN/CLOSE   UNIT 1999   STATUS:OLD                 
 FORMAT:FORMATTED              ACCESS:SEQUENTIAL          
 ACTION:READ                


 OPENED C.ic_strt_layer7.txt
 FILE TYPE:OPEN/CLOSE   UNIT 2000   STATUS:OLD                 
 FORMAT:FORMATTED              ACCESS:SEQUENTIAL          
 ACTION:READ                


 OPENED C.ic_strt_layer8.txt
 FILE TYPE:OPEN/CLOSE   UNIT 2001   STATUS:OLD                 
 FORMAT:FORMATTED              ACCESS:SEQUENTIAL          
 ACTION:READ                


 OPENED C.ic_strt_layer9.txt
 FILE TYPE:OPEN/CLOSE   UNIT 2002   STATUS:OLD                 
 FORMAT:FORMATTED              ACCESS:SEQUENTIAL          
 ACTION:READ                


 OPENED C.ic_strt_layer10.txt
 FILE TYPE:OPEN/CLOSE   UNIT 2003   STATUS:OLD                 
 FORMAT:FORMATTED              ACCESS:SEQUENTIAL          
 ACTION:READ                

 END PROCESSING GRIDDATA

 MST -- MOBILE STORAGE AND TRANSFER PACKAGE, VERSION 1, 7/29/2020 INPUT READ FROM UNIT 1309


 # File generated by Flopy version 3.5.0.dev0 on 07/12/2024 at 15:45:50.
 PROCESSING MOBILE STORAGE AND TRANSFER OPTIONS
 END OF MOBILE STORAGE AND TRANSFER OPTIONS
 PROCESSING GRIDDATA

 OPENED C.mst_porosity.txt
 FILE TYPE:OPEN/CLOSE   UNIT 2004   STATUS:OLD                 
 FORMAT:FORMATTED              ACCESS:SEQUENTIAL          
 ACTION:READ                

 END PROCESSING GRIDDATA

 SSM -- SOURCE-SINK MIXING PACKAGE, VERSION 1, 8/25/2017 INPUT READ FROM UNIT 1342


 # File generated by Flopy version 3.5.0.dev0 on 07/12/2024 at 15:45:50.
 PROCESSING SSM OPTIONS
    SSM FLOW INFORMATION WILL BE PRINTED TO LISTING FILE WHENEVER ICBCFL IS NOT ZERO.
    CELL-BY-CELL FLOW INFORMATION WILL BE SAVED TO BINARY FILE WHENEVER ICBCFL IS NOT ZERO.
 END OF SSM OPTIONS

 OPENED C.ssm_sources.txt
 FILE TYPE:OPEN/CLOSE   UNIT 2005   STATUS:OLD                 
 FORMAT:FORMATTED              ACCESS:SEQUENTIAL          
 ACTION:READ                

 PROCESSING SOURCES
 AUX SOURCE DETECTED.
    USING AUX COLUMN 5 IN PACKAGE CHD
 END PROCESSING SOURCES
 OPTIONAL FILEINPUT BLOCK NOT FOUND.  CONTINUING.
      THE LAST TIME STEP WILL BE PRINTED
      THE LAST TIME STEP WILL BE PRINTED
 # File generated by Flopy version 3.5.0.dev0 on 07/12/2024 at 15:45:50.

 PROCESSING OC OPTIONS

    BUDGET INFORMATION WILL BE WRITTEN TO:
      UNIT NUMBER: 2006
      FILE NAME: C.cbb

 OPENED C.cbb
 FILE TYPE:DATA(BINARY)   UNIT 2006   STATUS:REPLACE             
 FORMAT:UNFORMATTED            ACCESS:STREAM              
 ACTION:READWRITE           

    CONCENTRATION INFORMATION WILL BE WRITTEN TO:
      UNIT NUMBER: 2007
      FILE NAME: C.ucn

 OPENED C.ucn
 FILE TYPE:DATA(BINARY)   UNIT 2007   STATUS:REPLACE             
 FORMAT:UNFORMATTED            ACCESS:STREAM              
 ACTION:READWRITE           

 END OF OC OPTIONS

start timestep kper="1" kstp="1" mode="normal"


 BEGIN READING OUTPUT CONTROL FOR STRESS PERIOD 1
      ALL TIME STEPS WILL BE SAVED
      ALL TIME STEPS WILL BE SAVED
      ALL TIME STEPS WILL BE PRINTED
      ALL TIME STEPS WILL BE PRINTED

 END READING OUTPUT CONTROL FOR STRESS PERIOD 1

 OPENED C.cnc_stress_period_data_1.txt
 FILE TYPE:OPEN/CLOSE   UNIT 2138   STATUS:OLD                 
 FORMAT:FORMATTED              ACCESS:SEQUENTIAL          
 ACTION:READ                

 UBDSV06 SAVING  SOURCE-SINK MIX IN MODEL C                PACKAGE C               CONNECTED TO MODEL C                PACKAGE SSM              ON UNIT   2006 AT TIME STEP      1, STRESS PERIOD      1
 UBDSV06 SAVING              CNC IN MODEL C                PACKAGE C               CONNECTED TO MODEL C                PACKAGE CNC              ON UNIT   2006 AT TIME STEP      1, STRESS PERIOD      1

 SSM PACKAGE (SSM) FLOW RATES   PERIOD      1   STEP        1
 ------------------------------------------------------------------------------------------------
   NUMBER   CELLID                   BOUND Q        SSM CONC          RATE         PACKAGE NAME  
 ------------------------------------------------------------------------------------------------
     1      (1,1,1)               2.08333361E-02  0.49054516      1.02196922E-02       CHD       
     2      (2,1,1)               2.08333361E-02  0.49054516      1.02196922E-02       CHD       
     3      (3,1,1)               2.08333361E-02  0.49054516      1.02196922E-02       CHD       
     4      (4,1,1)               0.0000000       0.0000000       0.0000000            CHD       
     5      (5,1,1)               0.0000000       0.0000000       0.0000000            CHD       
     6      (6,1,1)               0.0000000       0.0000000       0.0000000            CHD       
     7      (7,1,1)               0.0000000       0.0000000       0.0000000            CHD       
     8      (8,1,1)               0.0000000       0.0000000       0.0000000            CHD       
     9      (9,1,1)               0.0000000       0.0000000       0.0000000            CHD       
     10     (10,1,1)              0.0000000       0.0000000       0.0000000            CHD       
     11     (1,1,25)             -2.08333402E-02  3.9350431      -8.19800924E-02       CHD       
     12     (2,1,25)             -2.08333402E-02  3.9350431      -8.19800925E-02       CHD       
     13     (3,1,25)             -2.08333402E-02  3.9350431      -8.19800925E-02       CHD       
     14     (4,1,25)             -2.08333403E-02  3.9350431      -8.19800926E-02       CHD       
     15     (5,1,25)             -2.08333403E-02  3.9350431      -8.19800927E-02       CHD       
     16     (6,1,25)             -2.08333403E-02  3.9350431      -8.19800927E-02       CHD       
     17     (7,1,25)             -2.08333403E-02  3.9350431      -8.19800928E-02       CHD       
     18     (8,1,25)             -2.08333403E-02  3.9350431      -8.19800928E-02       CHD       
     19     (9,1,25)             -2.08333403E-02  3.9350431      -8.19800928E-02       CHD       
     20     (10,1,25)            -2.08333403E-02  3.9350431      -8.19800927E-02       CHD       
 ------------------------------------------------------------------------------------------------




 CNC PACKAGE (CNC) FLOW RATES   PERIOD      1   STEP        1
 -----------------------------------------------
   NUMBER   CELLID                    RATE      
 -----------------------------------------------
     1      (4,1,1)               0.13177669    
     2      (5,1,1)               8.18576141E-02
     3      (6,1,1)               8.18085747E-02
     4      (7,1,1)               8.17886532E-02
     5      (8,1,1)               8.17805027E-02
     6      (9,1,1)               8.17772249E-02
     7      (10,1,1)              8.17760695E-02
 -----------------------------------------------



1
  CONCENTRATION IN LAYER   1 AT END OF TIME STEP   1 IN STRESS PERIOD    1
  ---------------------------------------------------------------------------

                1               2               3               4               5               6               7               8               9              10
               11              12              13              14              15              16              17              18              19              20
               21              22              23              24              25
 ................................................................................................................................................................
   1  4.586321442     4.047470523     3.945651893     3.935990874     3.935184203     3.935072805     3.934987882     3.935031757     3.935041180     3.935043045    
      3.935043139     3.935043144     3.935043130     3.935043124     3.935043125     3.935043128     3.935043127     3.935043124     3.935043122     3.935043123    
      3.935043125     3.935043129     3.935043132     3.935043136     3.935043138    
1
  CONCENTRATION IN LAYER   2 AT END OF TIME STEP   1 IN STRESS PERIOD    1
  ---------------------------------------------------------------------------

                1               2               3               4               5               6               7               8               9              10
               11              12              13              14              15              16              17              18              19              20
               21              22              23              24              25
 ................................................................................................................................................................
   1  4.525939352     4.033488459     3.944535242     3.935914753     3.935199356     3.935067648     3.934975959     3.935031055     3.935041080     3.935043064    
      3.935043148     3.935043146     3.935043122     3.935043113     3.935043117     3.935043121     3.935043119     3.935043114     3.935043112     3.935043113    
      3.935043118     3.935043124     3.935043129     3.935043136     3.935043137    
1
  CONCENTRATION IN LAYER   3 AT END OF TIME STEP   1 IN STRESS PERIOD    1
  ---------------------------------------------------------------------------

                1               2               3               4               5               6               7               8               9              10
               11              12              13              14              15              16              17              18              19              20
               21              22              23              24              25
 ................................................................................................................................................................
   1  4.355492023     4.003900559     3.942643001     3.935788199     3.935223647     3.935053933     3.934961600     3.935030372     3.935040960     3.935043095    
      3.935043165     3.935043150     3.935043110     3.935043097     3.935043104     3.935043111     3.935043108     3.935043100     3.935043096     3.935043099    
      3.935043107     3.935043116     3.935043124     3.935043135     3.935043137    
1
  CONCENTRATION IN LAYER   4 AT END OF TIME STEP   1 IN STRESS PERIOD    1
  ---------------------------------------------------------------------------

                1               2               3               4               5               6               7               8               9              10
               11              12              13              14              15              16              17              18              19              20
               21              22              23              24              25
 ................................................................................................................................................................
   1  3.928349470     3.962270112     3.940945471     3.935650975     3.935243827     3.935033910     3.934954445     3.935030376     3.935040915     3.935043124    
      3.935043182     3.935043153     3.935043100     3.935043084     3.935043095     3.935043104     3.935043100     3.935043088     3.935043083     3.935043087    
      3.935043097     3.935043109     3.935043120     3.935043133     3.935043137    
1
  CONCENTRATION IN LAYER   5 AT END OF TIME STEP   1 IN STRESS PERIOD    1
  ---------------------------------------------------------------------------

                1               2               3               4               5               6               7               8               9              10
               11              12              13              14              15              16              17              18              19              20
               21              22              23              24              25
 ................................................................................................................................................................
   1  3.928349470     3.945670986     3.938742707     3.935482187     3.935248114     3.935014723     3.934956918     3.935031221     3.935040988     3.935043143    
      3.935043194     3.935043156     3.935043095     3.935043077     3.935043090     3.935043102     3.935043096     3.935043083     3.935043075     3.935043080    
      3.935043091     3.935043105     3.935043117     3.935043132     3.935043137    
1
  CONCENTRATION IN LAYER   6 AT END OF TIME STEP   1 IN STRESS PERIOD    1
  ---------------------------------------------------------------------------

                1               2               3               4               5               6               7               8               9              10
               11              12              13              14              15              16              17              18              19              20
               21              22              23              24              25
 ................................................................................................................................................................
   1  3.928349470     3.939254359     3.937022386     3.935315752     3.935233745     3.935002215     3.934966669     3.935032684     3.935041170     3.935043152    
      3.935043198     3.935043157     3.935043094     3.935043076     3.935043090     3.935043102     3.935043096     3.935043082     3.935043074     3.935043078    
      3.935043090     3.935043104     3.935043116     3.935043131     3.935043137    
1
  CONCENTRATION IN LAYER   7 AT END OF TIME STEP   1 IN STRESS PERIOD    1
  ---------------------------------------------------------------------------

                1               2               3               4               5               6               7               8               9              10
               11              12              13              14              15              16              17              18              19              20
               21              22              23              24              25
 ................................................................................................................................................................
   1  3.928349470     3.936740018     3.936017922     3.935197782     3.935205625     3.934998668     3.934980014     3.935034409     3.935041416     3.935043154    
      3.935043197     3.935043157     3.935043096     3.935043079     3.935043092     3.935043104     3.935043098     3.935043084     3.935043076     3.935043080    
      3.935043091     3.935043105     3.935043116     3.935043131     3.935043137    
1
  CONCENTRATION IN LAYER   8 AT END OF TIME STEP   1 IN STRESS PERIOD    1
  ---------------------------------------------------------------------------

                1               2               3               4               5               6               7               8               9              10
               11              12              13              14              15              16              17              18              19              20
               21              22              23              24              25
 ................................................................................................................................................................
   1  3.928349470     3.935767925     3.935452522     3.935148454     3.935171571     3.935003307     3.934993605     3.935036047     3.935041669     3.935043148    
      3.935043190     3.935043155     3.935043100     3.935043085     3.935043097     3.935043107     3.935043102     3.935043089     3.935043082     3.935043085    
      3.935043095     3.935043108     3.935043117     3.935043131     3.935043137    
1
  CONCENTRATION IN LAYER   9 AT END OF TIME STEP   1 IN STRESS PERIOD    1
  ---------------------------------------------------------------------------

                1               2               3               4               5               6               7               8               9              10
               11              12              13              14              15              16              17              18              19              20
               21              22              23              24              25
 ................................................................................................................................................................
   1  3.928349470     3.935390503     3.935185493     3.935117598     3.935139622     3.935012876     3.935004753     3.935037303     3.935041876     3.935043134    
      3.935043177     3.935043153     3.935043108     3.935043094     3.935043104     3.935043112     3.935043108     3.935043098     3.935043092     3.935043095    
      3.935043103     3.935043113     3.935043121     3.935043132     3.935043137    
1
  CONCENTRATION IN LAYER  10 AT END OF TIME STEP   1 IN STRESS PERIOD    1
  ---------------------------------------------------------------------------

                1               2               3               4               5               6               7               8               9              10
               11              12              13              14              15              16              17              18              19              20
               21              22              23              24              25
 ................................................................................................................................................................
   1  3.928349470     3.935260351     3.935083326     3.935100788     3.935119318     3.935021526     3.935011359     3.935037969     3.935041995     3.935043110    
      3.935043155     3.935043149     3.935043121     3.935043112     3.935043117     3.935043122     3.935043120     3.935043114     3.935043111     3.935043112    
      3.935043116     3.935043122     3.935043127     3.935043134     3.935043137    

 CONCENTRATION WILL BE SAVED ON UNIT 2007 AT END OF TIME STEP    1, STRESS PERIOD    1


  MASS BUDGET FOR ENTIRE MODEL AT END OF TIME STEP    1, STRESS PERIOD   1
  ---------------------------------------------------------------------------------------------------

     CUMULATIVE MASS      M       RATES FOR THIS TIME STEP      M/T          PACKAGE NAME    
     ------------------                 ------------------------                     ----------------

           IN:                                      IN:
           ---                                      ---
     STORAGE-AQUEOUS =           1.6650       STORAGE-AQUEOUS =           0.1665     MST                              
                 CHD =           0.3066                   CHD =       3.0659E-02     SSM_CHD                          
                 CNC =           6.2257                   CNC =           0.6226     CNC                              

            TOTAL IN =           8.1972              TOTAL IN =           0.8197

          OUT:                                     OUT:
          ----                                     ----
     STORAGE-AQUEOUS =       1.7563E-06       STORAGE-AQUEOUS =       1.7563E-07     MST                              
                 CHD =           8.1972                   CHD =           0.8197     SSM_CHD                          
                 CNC =           0.0000                   CNC =           0.0000     CNC                              

           TOTAL OUT =           8.1972             TOTAL OUT =           0.8197

            IN - OUT =      -3.1903E-09              IN - OUT =      -3.1903E-10

 PERCENT DISCREPANCY =          -0.00     PERCENT DISCREPANCY =          -0.00




         TIME SUMMARY AT END OF TIME STEP    1 IN STRESS PERIOD    1
                    SECONDS     MINUTES      HOURS       DAYS        YEARS
                    -----------------------------------------------------------
   TIME STEP LENGTH 8.64000E+05  14400.      240.00      10.000     2.73785E-02
 STRESS PERIOD TIME 8.64000E+05  14400.      240.00      10.000     2.73785E-02
         TOTAL TIME 8.64000E+05  14400.      240.00      10.000     2.73785E-02


end timestep


start timestep kper="1" kstp="2" mode="normal"

 UBDSV06 SAVING  SOURCE-SINK MIX IN MODEL C                PACKAGE C               CONNECTED TO MODEL C                PACKAGE SSM              ON UNIT   2006 AT TIME STEP      2, STRESS PERIOD      1
 UBDSV06 SAVING              CNC IN MODEL C                PACKAGE C               CONNECTED TO MODEL C                PACKAGE CNC              ON UNIT   2006 AT TIME STEP      2, STRESS PERIOD      1

 SSM PACKAGE (SSM) FLOW RATES   PERIOD      1   STEP        2
 ------------------------------------------------------------------------------------------------
   NUMBER   CELLID                   BOUND Q        SSM CONC          RATE         PACKAGE NAME  
 ------------------------------------------------------------------------------------------------
     1      (1,1,1)               2.08333319E-02  0.49054516      1.02196901E-02       CHD       
     2      (2,1,1)               2.08333319E-02  0.49054516      1.02196901E-02       CHD       
     3      (3,1,1)               2.08333319E-02  0.49054516      1.02196901E-02       CHD       
     4      (4,1,1)               0.0000000       0.0000000       0.0000000            CHD       
     5      (5,1,1)               0.0000000       0.0000000       0.0000000            CHD       
     6      (6,1,1)               0.0000000       0.0000000       0.0000000            CHD       
     7      (7,1,1)               0.0000000       0.0000000       0.0000000            CHD       
     8      (8,1,1)               0.0000000       0.0000000       0.0000000            CHD       
     9      (9,1,1)               0.0000000       0.0000000       0.0000000            CHD       
     10     (10,1,1)              0.0000000       0.0000000       0.0000000            CHD       
     11     (1,1,25)             -2.08333370E-02  3.9350431      -8.19800797E-02       CHD       
     12     (2,1,25)             -2.08333370E-02  3.9350431      -8.19800797E-02       CHD       
     13     (3,1,25)             -2.08333370E-02  3.9350431      -8.19800798E-02       CHD       
     14     (4,1,25)             -2.08333370E-02  3.9350431      -8.19800798E-02       CHD       
     15     (5,1,25)             -2.08333370E-02  3.9350431      -8.19800798E-02       CHD       
     16     (6,1,25)             -2.08333370E-02  3.9350431      -8.19800799E-02       CHD       
     17     (7,1,25)             -2.08333370E-02  3.9350431      -8.19800799E-02       CHD       
     18     (8,1,25)             -2.08333370E-02  3.9350431      -8.19800799E-02       CHD       
     19     (9,1,25)             -2.08333370E-02  3.9350431      -8.19800799E-02       CHD       
     20     (10,1,25)            -2.08333370E-02  3.9350431      -8.19800799E-02       CHD       
 ------------------------------------------------------------------------------------------------




 CNC PACKAGE (CNC) FLOW RATES   PERIOD      1   STEP        2
 -----------------------------------------------
   NUMBER   CELLID                    RATE      
 -----------------------------------------------
     1      (4,1,1)               8.14572258E-02
     2      (5,1,1)               8.15654558E-02
     3      (6,1,1)               8.16683214E-02
     4      (7,1,1)               8.17208290E-02
     5      (8,1,1)               8.17465245E-02
     6      (9,1,1)               8.17584030E-02
     7      (10,1,1)              8.17629992E-02
 -----------------------------------------------



1
  CONCENTRATION IN LAYER   1 AT END OF TIME STEP   2 IN STRESS PERIOD    1
  ---------------------------------------------------------------------------

                1               2               3               4               5               6               7               8               9              10
               11              12              13              14              15              16              17              18              19              20
               21              22              23              24              25
 ................................................................................................................................................................
   1  5.041639473     4.233757355     3.941707029     3.934856314     3.935138261     3.935075452     3.934994811     3.935024584     3.935035392     3.935042872    
      3.935043149     3.935043256     3.935043157     3.935043122     3.935043116     3.935043113     3.935043110     3.935043108     3.935043108     3.935043110    
      3.935043114     3.935043119     3.935043125     3.935043133     3.935043137    
1
  CONCENTRATION IN LAYER   2 AT END OF TIME STEP   2 IN STRESS PERIOD    1
  ---------------------------------------------------------------------------

                1               2               3               4               5               6               7               8               9              10
               11              12              13              14              15              16              17              18              19              20
               21              22              23              24              25
 ................................................................................................................................................................
   1  4.914334886     4.194658687     3.941716764     3.934972639     3.935159306     3.935068445     3.934986080     3.935031871     3.935034728     3.935042166    
      3.935043524     3.935043254     3.935043148     3.935043118     3.935043109     3.935043104     3.935043099     3.935043098     3.935043098     3.935043101    
      3.935043107     3.935043114     3.935043122     3.935043132     3.935043137    
1
  CONCENTRATION IN LAYER   3 AT END OF TIME STEP   2 IN STRESS PERIOD    1
  ---------------------------------------------------------------------------

                1               2               3               4               5               6               7               8               9              10
               11              12              13              14              15              16              17              18              19              20
               21              22              23              24              25
 ................................................................................................................................................................
   1  4.595126118     4.117721970     3.942676332     3.935267651     3.935196555     3.935052272     3.934979930     3.935040322     3.935033944     3.935042110    
      3.935043538     3.935043223     3.935043140     3.935043112     3.935043099     3.935043089     3.935043082     3.935043082     3.935043084     3.935043088    
      3.935043096     3.935043105     3.935043116     3.935043131     3.935043137    
1
  CONCENTRATION IN LAYER   4 AT END OF TIME STEP   2 IN STRESS PERIOD    1
  ---------------------------------------------------------------------------

                1               2               3               4               5               6               7               8               9              10
               11              12              13              14              15              16              17              18              19              20
               21              22              23              24              25
 ................................................................................................................................................................
   1  3.928349470     4.016858873     3.948020361     3.935808050     3.935236223     3.935032106     3.934988480     3.935037561     3.935034423     3.935042314    
      3.935043532     3.935043200     3.935043135     3.935043108     3.935043091     3.935043076     3.935043067     3.935043068     3.935043071     3.935043077    
      3.935043086     3.935043097     3.935043110     3.935043129     3.935043136    
1
  CONCENTRATION IN LAYER   5 AT END OF TIME STEP   2 IN STRESS PERIOD    1
  ---------------------------------------------------------------------------

                1               2               3               4               5               6               7               8               9              10
               11              12              13              14              15              16              17              18              19              20
               21              22              23              24              25
 ................................................................................................................................................................
   1  3.928349470     3.971038891     3.945395404     3.935959090     3.935255173     3.935015315     3.935000800     3.935034335     3.935034322     3.935042477    
      3.935043532     3.935043189     3.935043132     3.935043105     3.935043086     3.935043069     3.935043059     3.935043060     3.935043063     3.935043070    
      3.935043080     3.935043092     3.935043106     3.935043127     3.935043136    
1
  CONCENTRATION IN LAYER   6 AT END OF TIME STEP   2 IN STRESS PERIOD    1
  ---------------------------------------------------------------------------

                1               2               3               4               5               6               7               8               9              10
               11              12              13              14              15              16              17              18              19              20
               21              22              23              24              25
 ................................................................................................................................................................
   1  3.928349470     3.950532561     3.941921361     3.935817032     3.935245469     3.935005458     3.935011682     3.935033364     3.935034398     3.935042546    
      3.935043526     3.935043187     3.935043131     3.935043105     3.935043085     3.935043068     3.935043057     3.935043057     3.935043061     3.935043068    
      3.935043077     3.935043090     3.935043104     3.935043126     3.935043136    
1
  CONCENTRATION IN LAYER   7 AT END OF TIME STEP   2 IN STRESS PERIOD    1
  ---------------------------------------------------------------------------

                1               2               3               4               5               6               7               8               9              10
               11              12              13              14              15              16              17              18              19              20
               21              22              23              24              25
 ................................................................................................................................................................
   1  3.928349470     3.941483225     3.939342135     3.935571778     3.935215460     3.935003080     3.935019765     3.935033927     3.935035039     3.935042550    
      3.935043514     3.935043193     3.935043133     3.935043107     3.935043087     3.935043070     3.935043060     3.935043060     3.935043063     3.935043070    
      3.935043079     3.935043091     3.935043105     3.935043126     3.935043136    
1
  CONCENTRATION IN LAYER   8 AT END OF TIME STEP   2 IN STRESS PERIOD    1
  ---------------------------------------------------------------------------

                1               2               3               4               5               6               7               8               9              10
               11              12              13              14              15              16              17              18              19              20
               21              22              23              24              25
 ................................................................................................................................................................
   1  3.928349470     3.937628266     3.937637908     3.935385080     3.935180229     3.935006991     3.935023012     3.935035435     3.935036133     3.935042492    
      3.935043516     3.935043211     3.935043137     3.935043109     3.935043092     3.935043077     3.935043067     3.935043067     3.935043069     3.935043075    
      3.935043083     3.935043095     3.935043107     3.935043126     3.935043136    
1
  CONCENTRATION IN LAYER   9 AT END OF TIME STEP   2 IN STRESS PERIOD    1
  ---------------------------------------------------------------------------

                1               2               3               4               5               6               7               8               9              10
               11              12              13              14              15              16              17              18              19              20
               21              22              23              24              25
 ................................................................................................................................................................
   1  3.928349470     3.936039168     3.936686069     3.935257578     3.935151525     3.935014403     3.935018919     3.935037169     3.935037521     3.935042319    
      3.935043592     3.935043251     3.935043141     3.935043112     3.935043098     3.935043086     3.935043078     3.935043077     3.935043079     3.935043084    
      3.935043091     3.935043101     3.935043111     3.935043128     3.935043136    
1
  CONCENTRATION IN LAYER  10 AT END OF TIME STEP   2 IN STRESS PERIOD    1
  ---------------------------------------------------------------------------

                1               2               3               4               5               6               7               8               9              10
               11              12              13              14              15              16              17              18              19              20
               21              22              23              24              25
 ................................................................................................................................................................
   1  3.928349470     3.935478463     3.936281023     3.935180680     3.935137165     3.935020295     3.935013223     3.935034686     3.935039312     3.935041854    
      3.935043871     3.935043326     3.935043143     3.935043113     3.935043106     3.935043101     3.935043095     3.935043092     3.935043092     3.935043095    
      3.935043101     3.935043109     3.935043117     3.935043129     3.935043136    

 CONCENTRATION WILL BE SAVED ON UNIT 2007 AT END OF TIME STEP    2, STRESS PERIOD    1


  MASS BUDGET FOR ENTIRE MODEL AT END OF TIME STEP    2, STRESS PERIOD   1
  ---------------------------------------------------------------------------------------------------

     CUMULATIVE MASS      M       RATES FOR THIS TIME STEP      M/T          PACKAGE NAME    
     ------------------                 ------------------------                     ----------------

           IN:                                      IN:
           ---                                      ---
     STORAGE-AQUEOUS =           3.9297       STORAGE-AQUEOUS =           0.2265     MST                              
                 CHD =           0.6132                   CHD =       3.0659E-02     SSM_CHD                          
                 CNC =          11.9425                   CNC =           0.5717     CNC                              

            TOTAL IN =          16.4853              TOTAL IN =           0.8288

          OUT:                                     OUT:
          ----                                     ----
     STORAGE-AQUEOUS =       9.0073E-02       STORAGE-AQUEOUS =       9.0071E-03     MST                              
                 CHD =          16.3952                   CHD =           0.8198     SSM_CHD                          
                 CNC =           0.0000                   CNC =           0.0000     CNC                              

           TOTAL OUT =          16.4853             TOTAL OUT =           0.8288

            IN - OUT =      -4.7765E-09              IN - OUT =      -1.5862E-10

 PERCENT DISCREPANCY =          -0.00     PERCENT DISCREPANCY =          -0.00




         TIME SUMMARY AT END OF TIME STEP    2 IN STRESS PERIOD    1
                    SECONDS     MINUTES      HOURS       DAYS        YEARS
                    -----------------------------------------------------------
   TIME STEP LENGTH 8.64000E+05  14400.      240.00      10.000     2.73785E-02
 STRESS PERIOD TIME 1.72800E+06  28800.      480.00      20.000     5.47570E-02
         TOTAL TIME 1.72800E+06  28800.      480.00      20.000     5.47570E-02


end timestep


start timestep kper="1" kstp="3" mode="normal"

 UBDSV06 SAVING  SOURCE-SINK MIX IN MODEL C                PACKAGE C               CONNECTED TO MODEL C                PACKAGE SSM              ON UNIT   2006 AT TIME STEP      3, STRESS PERIOD      1
 UBDSV06 SAVING              CNC IN MODEL C                PACKAGE C               CONNECTED TO MODEL C                PACKAGE CNC              ON UNIT   2006 AT TIME STEP      3, STRESS PERIOD      1

 SSM PACKAGE (SSM) FLOW RATES   PERIOD      1   STEP        3
 ------------------------------------------------------------------------------------------------
   NUMBER   CELLID                   BOUND Q        SSM CONC          RATE         PACKAGE NAME  
 ------------------------------------------------------------------------------------------------
     1      (1,1,1)               2.08333325E-02  0.49054516      1.02196904E-02       CHD       
     2      (2,1,1)               2.08333325E-02  0.49054516      1.02196904E-02       CHD       
     3      (3,1,1)               2.08333325E-02  0.49054516      1.02196904E-02       CHD       
     4      (4,1,1)               0.0000000       0.0000000       0.0000000            CHD       
     5      (5,1,1)               0.0000000       0.0000000       0.0000000            CHD       
     6      (6,1,1)               0.0000000       0.0000000       0.0000000            CHD       
     7      (7,1,1)               0.0000000       0.0000000       0.0000000            CHD       
     8      (8,1,1)               0.0000000       0.0000000       0.0000000            CHD       
     9      (9,1,1)               0.0000000       0.0000000       0.0000000            CHD       
     10     (10,1,1)              0.0000000       0.0000000       0.0000000            CHD       
     11     (1,1,25)             -2.08333362E-02  3.9350431      -8.19800766E-02       CHD       
     12     (2,1,25)             -2.08333362E-02  3.9350431      -8.19800766E-02       CHD       
     13     (3,1,25)             -2.08333362E-02  3.9350431      -8.19800766E-02       CHD       
     14     (4,1,25)             -2.08333362E-02  3.9350431      -8.19800766E-02       CHD       
     15     (5,1,25)             -2.08333362E-02  3.9350431      -8.19800767E-02       CHD       
     16     (6,1,25)             -2.08333362E-02  3.9350431      -8.19800767E-02       CHD       
     17     (7,1,25)             -2.08333362E-02  3.9350431      -8.19800767E-02       CHD       
     18     (8,1,25)             -2.08333362E-02  3.9350431      -8.19800767E-02       CHD       
     19     (9,1,25)             -2.08333362E-02  3.9350431      -8.19800767E-02       CHD       
     20     (10,1,25)            -2.08333362E-02  3.9350431      -8.19800767E-02       CHD       
 ------------------------------------------------------------------------------------------------




 CNC PACKAGE (CNC) FLOW RATES   PERIOD      1   STEP        3
 -----------------------------------------------
   NUMBER   CELLID                    RATE      
 -----------------------------------------------
     1      (4,1,1)               4.92168577E-02
     2      (5,1,1)               8.11247629E-02
     3      (6,1,1)               8.14405521E-02
     4      (7,1,1)               8.16072407E-02
     5      (8,1,1)               8.16911691E-02
     6      (9,1,1)               8.17313492E-02
     7      (10,1,1)              8.17472659E-02
 -----------------------------------------------



1
  CONCENTRATION IN LAYER   1 AT END OF TIME STEP   3 IN STRESS PERIOD    1
  ---------------------------------------------------------------------------

                1               2               3               4               5               6               7               8               9              10
               11              12              13              14              15              16              17              18              19              20
               21              22              23              24              25
 ................................................................................................................................................................
   1  5.368191308     4.442246522     3.935672610     3.931747891     3.934717889     3.935037805     3.935016321     3.935011742     3.935027625     3.935038400    
      3.935043196     3.935043732     3.935043291     3.935043133     3.935043105     3.935043100     3.935043097     3.935043095     3.935043095     3.935043097    
      3.935043103     3.935043111     3.935043119     3.935043130     3.935043136    
1
  CONCENTRATION IN LAYER   2 AT END OF TIME STEP   3 IN STRESS PERIOD    1
  ---------------------------------------------------------------------------

                1               2               3               4               5               6               7               8               9              10
               11              12              13              14              15              16              17              18              19              20
               21              22              23              24              25
 ................................................................................................................................................................
   1  5.174395207     4.380486414     3.932722671     3.932022166     3.934777718     3.935037264     3.935016929     3.935014094     3.935026018     3.935037806    
      3.935042968     3.935043732     3.935043282     3.935043126     3.935043097     3.935043092     3.935043088     3.935043086     3.935043087     3.935043090    
      3.935043096     3.935043106     3.935043116     3.935043129     3.935043136    
1
  CONCENTRATION IN LAYER   3 AT END OF TIME STEP   3 IN STRESS PERIOD    1
  ---------------------------------------------------------------------------

                1               2               3               4               5               6               7               8               9              10
               11              12              13              14              15              16              17              18              19              20
               21              22              23              24              25
 ................................................................................................................................................................
   1  4.747215698     4.259660462     3.932396822     3.932942394     3.934897752     3.935035625     3.935021187     3.935015838     3.935023649     3.935037269    
      3.935042773     3.935043697     3.935043271     3.935043116     3.935043085     3.935043078     3.935043073     3.935043072     3.935043073     3.935043077    
      3.935043086     3.935043098     3.935043111     3.935043127     3.935043135    
1
  CONCENTRATION IN LAYER   4 AT END OF TIME STEP   3 IN STRESS PERIOD    1
  ---------------------------------------------------------------------------

                1               2               3               4               5               6               7               8               9              10
               11              12              13              14              15              16              17              18              19              20
               21              22              23              24              25
 ................................................................................................................................................................
   1  3.928349470     4.092284714     3.953598133     3.934991256     3.935054392     3.935033360     3.935030424     3.935014822     3.935021529     3.935036979    
      3.935042708     3.935043648     3.935043262     3.935043108     3.935043075     3.935043066     3.935043060     3.935043059     3.935043060     3.935043066    
      3.935043076     3.935043090     3.935043105     3.935043125     3.935043135    
1
  CONCENTRATION IN LAYER   5 AT END OF TIME STEP   3 IN STRESS PERIOD    1
  ---------------------------------------------------------------------------

                1               2               3               4               5               6               7               8               9              10
               11              12              13              14              15              16              17              18              19              20
               21              22              23              24              25
 ................................................................................................................................................................
   1  3.928349470     4.009924438     3.953765820     3.936201478     3.935183818     3.935031739     3.935040692     3.935013443     3.935020197     3.935036966    
      3.935042737     3.935043616     3.935043254     3.935043103     3.935043069     3.935043059     3.935043052     3.935043051     3.935043052     3.935043058    
      3.935043069     3.935043084     3.935043101     3.935043123     3.935043135    
1
  CONCENTRATION IN LAYER   6 AT END OF TIME STEP   3 IN STRESS PERIOD    1
  ---------------------------------------------------------------------------

                1               2               3               4               5               6               7               8               9              10
               11              12              13              14              15              16              17              18              19              20
               21              22              23              24              25
 ................................................................................................................................................................
   1  3.928349470     3.970015191     3.948957405     3.936525378     3.935247723     3.935030884     3.935048901     3.935012952     3.935020241     3.935037233    
      3.935042795     3.935043607     3.935043252     3.935043102     3.935043067     3.935043056     3.935043050     3.935043048     3.935043050     3.935043055    
      3.935043066     3.935043082     3.935043099     3.935043122     3.935043134    
1
  CONCENTRATION IN LAYER   7 AT END OF TIME STEP   3 IN STRESS PERIOD    1
  ---------------------------------------------------------------------------

                1               2               3               4               5               6               7               8               9              10
               11              12              13              14              15              16              17              18              19              20
               21              22              23              24              25
 ................................................................................................................................................................
   1  3.928349470     3.950969659     3.944365828     3.936342676     3.935254941     3.935031036     3.935053563     3.935013374     3.935021770     3.935037723    
      3.935042841     3.935043619     3.935043255     3.935043103     3.935043069     3.935043059     3.935043052     3.935043051     3.935043052     3.935043057    
      3.935043068     3.935043083     3.935043099     3.935043122     3.935043134    
1
  CONCENTRATION IN LAYER   8 AT END OF TIME STEP   3 IN STRESS PERIOD    1
  ---------------------------------------------------------------------------

                1               2               3               4               5               6               7               8               9              10
               11              12              13              14              15              16              17              18              19              20
               21              22              23              24              25
 ................................................................................................................................................................
   1  3.928349470     3.942110042     3.941100891     3.936004838     3.935232960     3.935032367     3.935053372     3.935014641     3.935024467     3.935038310    
      3.935042866     3.935043655     3.935043264     3.935043106     3.935043074     3.935043065     3.935043059     3.935043057     3.935043057     3.935043062    
      3.935043072     3.935043086     3.935043101     3.935043122     3.935043134    
1
  CONCENTRATION IN LAYER   9 AT END OF TIME STEP   3 IN STRESS PERIOD    1
  ---------------------------------------------------------------------------

                1               2               3               4               5               6               7               8               9              10
               11              12              13              14              15              16              17              18              19              20
               21              22              23              24              25
 ................................................................................................................................................................
   1  3.928349470     3.938296950     3.938909658     3.935815073     3.935209258     3.935035785     3.935046357     3.935017473     3.935027643     3.935038790    
      3.935042892     3.935043716     3.935043276     3.935043111     3.935043081     3.935043074     3.935043068     3.935043066     3.935043066     3.935043071    
      3.935043079     3.935043091     3.935043105     3.935043123     3.935043134    
1
  CONCENTRATION IN LAYER  10 AT END OF TIME STEP   3 IN STRESS PERIOD    1
  ---------------------------------------------------------------------------

                1               2               3               4               5               6               7               8               9              10
               11              12              13              14              15              16              17              18              19              20
               21              22              23              24              25
 ................................................................................................................................................................
   1  3.928349470     3.936875375     3.937877557     3.935724098     3.935195046     3.935038239     3.935039314     3.935019763     3.935030004     3.935038957    
      3.935042940     3.935043772     3.935043287     3.935043117     3.935043090     3.935043085     3.935043080     3.935043077     3.935043077     3.935043080    
      3.935043087     3.935043098     3.935043109     3.935043125     3.935043134    

 CONCENTRATION WILL BE SAVED ON UNIT 2007 AT END OF TIME STEP    3, STRESS PERIOD    1


  MASS BUDGET FOR ENTIRE MODEL AT END OF TIME STEP    3, STRESS PERIOD   1
  ---------------------------------------------------------------------------------------------------

     CUMULATIVE MASS      M       RATES FOR THIS TIME STEP      M/T          PACKAGE NAME    
     ------------------                 ------------------------                     ----------------

           IN:                                      IN:
           ---                                      ---
     STORAGE-AQUEOUS =           6.7184       STORAGE-AQUEOUS =           0.2789     MST                              
                 CHD =           0.9198                   CHD =       3.0659E-02     SSM_CHD                          
                 CNC =          17.6415                   CNC =           0.5699     CNC                              

            TOTAL IN =          25.2797              TOTAL IN =           0.8794

          OUT:                                     OUT:
          ----                                     ----
     STORAGE-AQUEOUS =           0.3730       STORAGE-AQUEOUS =       2.8291E-02     MST                              
                 CHD =          24.5932                   CHD =           0.8198     SSM_CHD                          
                 CNC =           0.3134                   CNC =       3.1345E-02     CNC                              

           TOTAL OUT =          25.2797             TOTAL OUT =           0.8794

            IN - OUT =      -3.7463E-09              IN - OUT =       1.0302E-10

 PERCENT DISCREPANCY =          -0.00     PERCENT DISCREPANCY =           0.00




         TIME SUMMARY AT END OF TIME STEP    3 IN STRESS PERIOD    1
                    SECONDS     MINUTES      HOURS       DAYS        YEARS
                    -----------------------------------------------------------
   TIME STEP LENGTH 8.64000E+05  14400.      240.00      10.000     2.73785E-02
 STRESS PERIOD TIME 2.59200E+06  43200.      720.00      30.000     8.21355E-02
         TOTAL TIME 2.59200E+06  43200.      720.00      30.000     8.21355E-02


end timestep


start timestep kper="1" kstp="4" mode="normal"

 UBDSV06 SAVING  SOURCE-SINK MIX IN MODEL C                PACKAGE C               CONNECTED TO MODEL C                PACKAGE SSM              ON UNIT   2006 AT TIME STEP      4, STRESS PERIOD      1
 UBDSV06 SAVING              CNC IN MODEL C                PACKAGE C               CONNECTED TO MODEL C                PACKAGE CNC              ON UNIT   2006 AT TIME STEP      4, STRESS PERIOD      1

 SSM PACKAGE (SSM) FLOW RATES   PERIOD      1   STEP        4
 ------------------------------------------------------------------------------------------------
   NUMBER   CELLID                   BOUND Q        SSM CONC          RATE         PACKAGE NAME  
 ------------------------------------------------------------------------------------------------
     1      (1,1,1)               2.08333321E-02  0.49054516      1.02196902E-02       CHD       
     2      (2,1,1)               2.08333321E-02  0.49054516      1.02196902E-02       CHD       
     3      (3,1,1)               2.08333321E-02  0.49054516      1.02196902E-02       CHD       
     4      (4,1,1)               0.0000000       0.0000000       0.0000000            CHD       
     5      (5,1,1)               0.0000000       0.0000000       0.0000000            CHD       
     6      (6,1,1)               0.0000000       0.0000000       0.0000000            CHD       
     7      (7,1,1)               0.0000000       0.0000000       0.0000000            CHD       
     8      (8,1,1)               0.0000000       0.0000000       0.0000000            CHD       
     9      (9,1,1)               0.0000000       0.0000000       0.0000000            CHD       
     10     (10,1,1)              0.0000000       0.0000000       0.0000000            CHD       
     11     (1,1,25)             -2.08333356E-02  3.9350431      -8.19800743E-02       CHD       
     12     (2,1,25)             -2.08333356E-02  3.9350431      -8.19800743E-02       CHD       
     13     (3,1,25)             -2.08333356E-02  3.9350431      -8.19800743E-02       CHD       
     14     (4,1,25)             -2.08333356E-02  3.9350431      -8.19800743E-02       CHD       
     15     (5,1,25)             -2.08333356E-02  3.9350431      -8.19800743E-02       CHD       
     16     (6,1,25)             -2.08333356E-02  3.9350431      -8.19800743E-02       CHD       
     17     (7,1,25)             -2.08333356E-02  3.9350431      -8.19800743E-02       CHD       
     18     (8,1,25)             -2.08333356E-02  3.9350431      -8.19800743E-02       CHD       
     19     (9,1,25)             -2.08333356E-02  3.9350431      -8.19800743E-02       CHD       
     20     (10,1,25)            -2.08333356E-02  3.9350431      -8.19800743E-02       CHD       
 ------------------------------------------------------------------------------------------------




 CNC PACKAGE (CNC) FLOW RATES   PERIOD      1   STEP        4
 -----------------------------------------------
   NUMBER   CELLID                    RATE      
 -----------------------------------------------
     1      (4,1,1)               2.69561460E-02
     2      (5,1,1)               8.05633605E-02
     3      (6,1,1)               8.11258546E-02
     4      (7,1,1)               8.14361535E-02
     5      (8,1,1)               8.15993143E-02
     6      (9,1,1)               8.16796404E-02
     7      (10,1,1)              8.17124573E-02
 -----------------------------------------------



1
  CONCENTRATION IN LAYER   1 AT END OF TIME STEP   4 IN STRESS PERIOD    1
  ---------------------------------------------------------------------------

                1               2               3               4               5               6               7               8               9              10
               11              12              13              14              15              16              17              18              19              20
               21              22              23              24              25
 ................................................................................................................................................................
   1  5.612201944     4.669304779     3.913664576     3.923719269     3.933291865     3.934849110     3.935013169     3.935018079     3.935019559     3.935029325    
      3.935038759     3.935043256     3.935043678     3.935043242     3.935043106     3.935043087     3.935043085     3.935043083     3.935043084     3.935043087    
      3.935043094     3.935043103     3.935043113     3.935043126     3.935043134    
1
  CONCENTRATION IN LAYER   2 AT END OF TIME STEP   4 IN STRESS PERIOD    1
  ---------------------------------------------------------------------------

                1               2               3               4               5               6               7               8               9              10
               11              12              13              14              15              16              17              18              19              20
               21              22              23              24              25
 ................................................................................................................................................................
   1  5.365641458     4.582282373     3.912042255     3.924698331     3.933478328     3.934867639     3.935015925     3.935022848     3.935016946     3.935027396    
      3.935038655     3.935043227     3.935043673     3.935043237     3.935043100     3.935043080     3.935043077     3.935043075     3.935043076     3.935043080    
      3.935043088     3.935043098     3.935043110     3.935043125     3.935043134    
1
  CONCENTRATION IN LAYER   3 AT END OF TIME STEP   4 IN STRESS PERIOD    1
  ---------------------------------------------------------------------------

                1               2               3               4               5               6               7               8               9              10
               11              12              13              14              15              16              17              18              19              20
               21              22              23              24              25
 ................................................................................................................................................................
   1  4.851471599     4.414770994     3.917100868     3.927313163     3.933845824     3.934900567     3.935021685     3.935030151     3.935012335     3.935024744    
      3.935038558     3.935043191     3.935043663     3.935043230     3.935043089     3.935043068     3.935043064     3.935043063     3.935043065     3.935043070    
      3.935043079     3.935043091     3.935043105     3.935043123     3.935043134    
1
  CONCENTRATION IN LAYER   4 AT END OF TIME STEP   4 IN STRESS PERIOD    1
  ---------------------------------------------------------------------------

                1               2               3               4               5               6               7               8               9              10
               11              12              13              14              15              16              17              18              19              20
               21              22              23              24              25
 ................................................................................................................................................................
   1  3.928349470     4.180763325     3.958674857     3.932215299     3.934325687     3.934940345     3.935030136     3.935036928     3.935007186     3.935022607    
      3.935038571     3.935043174     3.935043652     3.935043222     3.935043080     3.935043057     3.935043052     3.935043051     3.935043053     3.935043059    
      3.935043070     3.935043084     3.935043100     3.935043121     3.935043133    
1
  CONCENTRATION IN LAYER   5 AT END OF TIME STEP   4 IN STRESS PERIOD    1
  ---------------------------------------------------------------------------

                1               2               3               4               5               6               7               8               9              10
               11              12              13              14              15              16              17              18              19              20
               21              22              23              24              25
 ................................................................................................................................................................
   1  3.928349470     4.058983668     3.963884374     3.935605662     3.934774690     3.934980233     3.935039626     3.935041429     3.935003246     3.935021630    
      3.935038716     3.935043184     3.935043642     3.935043217     3.935043074     3.935043050     3.935043044     3.935043043     3.935043045     3.935043052    
      3.935043064     3.935043079     3.935043097     3.935043119     3.935043133    
1
  CONCENTRATION IN LAYER   6 AT END OF TIME STEP   4 IN STRESS PERIOD    1
  ---------------------------------------------------------------------------

                1               2               3               4               5               6               7               8               9              10
               11              12              13              14              15              16              17              18              19              20
               21              22              23              24              25
 ................................................................................................................................................................
   1  3.928349470     3.996562156     3.958301194     3.937119141     3.935090184     3.935013458     3.935048203     3.935043043     3.935001732     3.935022006    
      3.935038930     3.935043215     3.935043635     3.935043214     3.935043072     3.935043048     3.935043042     3.935043040     3.935043042     3.935043049    
      3.935043061     3.935043077     3.935043095     3.935043118     3.935043132    
1
  CONCENTRATION IN LAYER   7 AT END OF TIME STEP   4 IN STRESS PERIOD    1
  ---------------------------------------------------------------------------

                1               2               3               4               5               6               7               8               9              10
               11              12              13              14              15              16              17              18              19              20
               21              22              23              24              25
 ................................................................................................................................................................
   1  3.928349470     3.965047073     3.951423709     3.937405247     3.935254843     3.935036842     3.935054334     3.935041972     3.935003081     3.935023378    
      3.935039214     3.935043257     3.935043634     3.935043214     3.935043073     3.935043049     3.935043043     3.935043042     3.935043044     3.935043050    
      3.935043061     3.935043077     3.935043094     3.935043118     3.935043132    
1
  CONCENTRATION IN LAYER   8 AT END OF TIME STEP   4 IN STRESS PERIOD    1
  ---------------------------------------------------------------------------

                1               2               3               4               5               6               7               8               9              10
               11              12              13              14              15              16              17              18              19              20
               21              22              23              24              25
 ................................................................................................................................................................
   1  3.928349470     3.949503625     3.946065258     3.937125466     3.935314544     3.935051323     3.935057136     3.935038989     3.935006823     3.935025294    
      3.935039508     3.935043307     3.935043639     3.935043216     3.935043076     3.935043054     3.935043049     3.935043047     3.935043049     3.935043055    
      3.935043065     3.935043080     3.935043096     3.935043118     3.935043132    
1
  CONCENTRATION IN LAYER   9 AT END OF TIME STEP   4 IN STRESS PERIOD    1
  ---------------------------------------------------------------------------

                1               2               3               4               5               6               7               8               9              10
               11              12              13              14              15              16              17              18              19              20
               21              22              23              24              25
 ................................................................................................................................................................
   1  3.928349470     3.942310368     3.942507660     3.936796699     3.935325699     3.935059585     3.935056832     3.935035250     3.935011617     3.935027243    
      3.935039749     3.935043362     3.935043651     3.935043220     3.935043082     3.935043061     3.935043057     3.935043055     3.935043056     3.935043061    
      3.935043071     3.935043084     3.935043099     3.935043119     3.935043132    
1
  CONCENTRATION IN LAYER  10 AT END OF TIME STEP   4 IN STRESS PERIOD    1
  ---------------------------------------------------------------------------

                1               2               3               4               5               6               7               8               9              10
               11              12              13              14              15              16              17              18              19              20
               21              22              23              24              25
 ................................................................................................................................................................
   1  3.928349470     3.939586489     3.940619938     3.936684621     3.935327317     3.935062951     3.935055972     3.935031991     3.935015216     3.935028624    
      3.935039884     3.935043409     3.935043667     3.935043225     3.935043089     3.935043070     3.935043066     3.935043064     3.935043064     3.935043069    
      3.935043077     3.935043089     3.935043103     3.935043120     3.935043132    

 CONCENTRATION WILL BE SAVED ON UNIT 2007 AT END OF TIME STEP    4, STRESS PERIOD    1


  MASS BUDGET FOR ENTIRE MODEL AT END OF TIME STEP    4, STRESS PERIOD   1
  ---------------------------------------------------------------------------------------------------

     CUMULATIVE MASS      M       RATES FOR THIS TIME STEP      M/T          PACKAGE NAME    
     ------------------                 ------------------------                     ----------------

           IN:                                      IN:
           ---                                      ---
     STORAGE-AQUEOUS =           9.9472       STORAGE-AQUEOUS =           0.3229     MST                              
                 CHD =           1.2264                   CHD =       3.0659E-02     SSM_CHD                          
                 CNC =          23.3187                   CNC =           0.5677     CNC                              

            TOTAL IN =          34.4922              TOTAL IN =           0.9213

          OUT:                                     OUT:
          ----                                     ----
     STORAGE-AQUEOUS =           0.8611       STORAGE-AQUEOUS =       4.8807E-02     MST                              
                 CHD =          32.7913                   CHD =           0.8198     SSM_CHD                          
                 CNC =           0.8399                   CNC =       5.2646E-02     CNC                              

           TOTAL OUT =          34.4922             TOTAL OUT =           0.9213

            IN - OUT =      -3.0357E-09              IN - OUT =       7.1064E-11

 PERCENT DISCREPANCY =          -0.00     PERCENT DISCREPANCY =           0.00




         TIME SUMMARY AT END OF TIME STEP    4 IN STRESS PERIOD    1
                    SECONDS     MINUTES      HOURS       DAYS        YEARS
                    -----------------------------------------------------------
   TIME STEP LENGTH 8.64000E+05  14400.      240.00      10.000     2.73785E-02
 STRESS PERIOD TIME 3.45600E+06  57600.      960.00      40.000     0.10951    
         TOTAL TIME 3.45600E+06  57600.      960.00      40.000     0.10951    


end timestep


start timestep kper="1" kstp="5" mode="normal"

 UBDSV06 SAVING  SOURCE-SINK MIX IN MODEL C                PACKAGE C               CONNECTED TO MODEL C                PACKAGE SSM              ON UNIT   2006 AT TIME STEP      5, STRESS PERIOD      1
 UBDSV06 SAVING              CNC IN MODEL C                PACKAGE C               CONNECTED TO MODEL C                PACKAGE CNC              ON UNIT   2006 AT TIME STEP      5, STRESS PERIOD      1

 SSM PACKAGE (SSM) FLOW RATES   PERIOD      1   STEP        5
 ------------------------------------------------------------------------------------------------
   NUMBER   CELLID                   BOUND Q        SSM CONC          RATE         PACKAGE NAME  
 ------------------------------------------------------------------------------------------------
     1      (1,1,1)               2.08333321E-02  0.49054516      1.02196902E-02       CHD       
     2      (2,1,1)               2.08333321E-02  0.49054516      1.02196902E-02       CHD       
     3      (3,1,1)               2.08333321E-02  0.49054516      1.02196902E-02       CHD       
     4      (4,1,1)               0.0000000       0.0000000       0.0000000            CHD       
     5      (5,1,1)               0.0000000       0.0000000       0.0000000            CHD       
     6      (6,1,1)               0.0000000       0.0000000       0.0000000            CHD       
     7      (7,1,1)               0.0000000       0.0000000       0.0000000            CHD       
     8      (8,1,1)               0.0000000       0.0000000       0.0000000            CHD       
     9      (9,1,1)               0.0000000       0.0000000       0.0000000            CHD       
     10     (10,1,1)              0.0000000       0.0000000       0.0000000            CHD       
     11     (1,1,25)             -2.08333353E-02  3.9350431      -8.19800731E-02       CHD       
     12     (2,1,25)             -2.08333353E-02  3.9350431      -8.19800731E-02       CHD       
[...]
               21              22              23              24              25
 ................................................................................................................................................................
   1  3.928349470     3.909003610     3.849118954     3.867828527     4.032681657     4.231385610     4.413743693     4.548382670     4.636174636     4.692513795    
      4.734568986     4.774356673     4.816309008     4.854813365     4.885120671     4.905028944     4.927590750     4.942425771     4.946689082     4.935888497    
      4.907379213     4.866435735     4.814829042     4.755011851     4.693402534    

 CONCENTRATION WILL BE SAVED ON UNIT 2007 AT END OF TIME STEP  199, STRESS PERIOD    1


  MASS BUDGET FOR ENTIRE MODEL AT END OF TIME STEP  199, STRESS PERIOD   1
  ---------------------------------------------------------------------------------------------------

     CUMULATIVE MASS      M       RATES FOR THIS TIME STEP      M/T          PACKAGE NAME    
     ------------------                 ------------------------                     ----------------

           IN:                                      IN:
           ---                                      ---
     STORAGE-AQUEOUS =        1178.6391       STORAGE-AQUEOUS =           0.5409     MST                              
                 CHD =          61.0116                   CHD =       3.0659E-02     SSM_CHD                          
                 CNC =        1313.4182                   CNC =           0.7130     CNC                              

            TOTAL IN =        2553.0689              TOTAL IN =           1.2846

          OUT:                                     OUT:
          ----                                     ----
     STORAGE-AQUEOUS =         857.3937       STORAGE-AQUEOUS =           0.3068     MST                              
                 CHD =        1681.5294                   CHD =           0.9778     SSM_CHD                          
                 CNC =          14.1458                   CNC =           0.0000     CNC                              

           TOTAL OUT =        2553.0689             TOTAL OUT =           1.2846

            IN - OUT =      -1.0031E-07              IN - OUT =      -6.9914E-11

 PERCENT DISCREPANCY =          -0.00     PERCENT DISCREPANCY =          -0.00




         TIME SUMMARY AT END OF TIME STEP  199 IN STRESS PERIOD    1
                    SECONDS     MINUTES      HOURS       DAYS        YEARS
                    -----------------------------------------------------------
   TIME STEP LENGTH 8.64000E+05  14400.      240.00      10.000     2.73785E-02
 STRESS PERIOD TIME 1.71936E+08 2.86560E+06  47760.      1990.0      5.4483    
         TOTAL TIME 1.71936E+08 2.86560E+06  47760.      1990.0      5.4483    


end timestep


start timestep kper="1" kstp="200" mode="normal"

 UBDSV06 SAVING  SOURCE-SINK MIX IN MODEL C                PACKAGE C               CONNECTED TO MODEL C                PACKAGE SSM              ON UNIT   2006 AT TIME STEP    200, STRESS PERIOD      1
 UBDSV06 SAVING              CNC IN MODEL C                PACKAGE C               CONNECTED TO MODEL C                PACKAGE CNC              ON UNIT   2006 AT TIME STEP    200, STRESS PERIOD      1

 SSM PACKAGE (SSM) FLOW RATES   PERIOD      1   STEP      200
 ------------------------------------------------------------------------------------------------
   NUMBER   CELLID                   BOUND Q        SSM CONC          RATE         PACKAGE NAME  
 ------------------------------------------------------------------------------------------------
     1      (1,1,1)               2.08333330E-02  0.49054516      1.02196907E-02       CHD       
     2      (2,1,1)               2.08333330E-02  0.49054516      1.02196907E-02       CHD       
     3      (3,1,1)               2.08333330E-02  0.49054516      1.02196907E-02       CHD       
     4      (4,1,1)               0.0000000       0.0000000       0.0000000            CHD       
     5      (5,1,1)               0.0000000       0.0000000       0.0000000            CHD       
     6      (6,1,1)               0.0000000       0.0000000       0.0000000            CHD       
     7      (7,1,1)               0.0000000       0.0000000       0.0000000            CHD       
     8      (8,1,1)               0.0000000       0.0000000       0.0000000            CHD       
     9      (9,1,1)               0.0000000       0.0000000       0.0000000            CHD       
     10     (10,1,1)              0.0000000       0.0000000       0.0000000            CHD       
     11     (1,1,25)             -2.08333337E-02  4.7035934      -9.79915300E-02       CHD       
     12     (2,1,25)             -2.08333337E-02  4.7035934      -9.79915317E-02       CHD       
     13     (3,1,25)             -2.08333337E-02  4.7035936      -9.79915341E-02       CHD       
     14     (4,1,25)             -2.08333337E-02  4.7035937      -9.79915370E-02       CHD       
     15     (5,1,25)             -2.08333337E-02  4.7035939      -9.79915402E-02       CHD       
     16     (6,1,25)             -2.08333337E-02  4.7035940      -9.79915434E-02       CHD       
     17     (7,1,25)             -2.08333337E-02  4.7035942      -9.79915465E-02       CHD       
     18     (8,1,25)             -2.08333337E-02  4.7035943      -9.79915495E-02       CHD       
     19     (9,1,25)             -2.08333337E-02  4.7035944      -9.79915524E-02       CHD       
     20     (10,1,25)            -2.08333337E-02  4.7035946      -9.79915552E-02       CHD       
 ------------------------------------------------------------------------------------------------




 CNC PACKAGE (CNC) FLOW RATES   PERIOD      1   STEP      200
 -----------------------------------------------
   NUMBER   CELLID                    RATE      
 -----------------------------------------------
     1      (4,1,1)               0.20787073    
     2      (5,1,1)               8.82505811E-02
     3      (6,1,1)               8.65605516E-02
     4      (7,1,1)               8.33598552E-02
     5      (8,1,1)               8.23501019E-02
     6      (9,1,1)               8.21780828E-02
     7      (10,1,1)              8.21295026E-02
 -----------------------------------------------



1
  CONCENTRATION IN LAYER   1 AT END OF TIME STEP 200 IN STRESS PERIOD    1
  ---------------------------------------------------------------------------

                1               2               3               4               5               6               7               8               9              10
               11              12              13              14              15              16              17              18              19              20
               21              22              23              24              25
 ................................................................................................................................................................
   1  2.765095843     3.618738327     3.281411180     3.219044337     4.618165518     4.798707998     4.736409654     4.706031445     4.711992801     4.725349767    
      4.758026203     4.782964292     4.814347565     4.850402094     4.881593695     4.902360126     4.924977094     4.940596029     4.945512607     4.937572510    
      4.911200153     4.872117838     4.822219429     4.763926583     4.703593366    
1
  CONCENTRATION IN LAYER   2 AT END OF TIME STEP 200 IN STRESS PERIOD    1
  ---------------------------------------------------------------------------

                1               2               3               4               5               6               7               8               9              10
               11              12              13              14              15              16              17              18              19              20
               21              22              23              24              25
 ................................................................................................................................................................
   1  2.951774936     3.519317756     3.273893280     3.365804377     4.534962918     4.736155538     4.708692803     4.696672586     4.708186670     4.724212914    
      4.755911752     4.782223933     4.814171652     4.850354374     4.881581310     4.902277151     4.924912747     4.940561787     4.945494554     4.937569222    
      4.911200417     4.872118386     4.822219690     4.763926716     4.703593447    
1
  CONCENTRATION IN LAYER   3 AT END OF TIME STEP 200 IN STRESS PERIOD    1
  ---------------------------------------------------------------------------

                1               2               3               4               5               6               7               8               9              10
               11              12              13              14              15              16              17              18              19              20
               21              22              23              24              25
 ................................................................................................................................................................
   1  3.533350899     3.359946588     3.259011059     4.318365119     4.418545072     4.622584309     4.661746730     4.678935031     4.700133277     4.721797694    
      4.752210623     4.780830994     4.813805530     4.850251474     4.881554931     4.902117946     4.924790111     4.940496645     4.945460329     4.937562935    
      4.911200912     4.872119422     4.822220222     4.763926922     4.703593564    
1
  CONCENTRATION IN LAYER   4 AT END OF TIME STEP 200 IN STRESS PERIOD    1
  ---------------------------------------------------------------------------

                1               2               3               4               5               6               7               8               9              10
               11              12              13              14              15              16              17              18              19              20
               21              22              23              24              25
 ................................................................................................................................................................
   1  3.928349470     3.223075473     3.248082614     4.169147642     4.306329558     4.516175845     4.608285563     4.655283889     4.689094283     4.717777735    
      4.747811408     4.779035220     4.813264601     4.850088412     4.881512680     4.901895853     4.924620796     4.940406973     4.945413458     4.937554218    
      4.911201586     4.872120851     4.822220961     4.763927204     4.703593703    
1
  CONCENTRATION IN LAYER   5 AT END OF TIME STEP 200 IN STRESS PERIOD    1
  ---------------------------------------------------------------------------

                1               2               3               4               5               6               7               8               9              10
               11              12              13              14              15              16              17              18              19              20
               21              22              23              24              25
 ................................................................................................................................................................
   1  3.928349470     3.180924196     3.308612751     4.155673908     4.225238234     4.423986150     4.554061531     4.628874812     4.676452099     4.711415968    
      4.743910176     4.777122629     4.812607868     4.849874146     4.881454443     4.901630283     4.924420949     4.940301561     4.945358665     4.937543899    
      4.911202369     4.872122536     4.822221832     4.763927541     4.703593854    
1
  CONCENTRATION IN LAYER   6 AT END OF TIME STEP 200 IN STRESS PERIOD    1
  ---------------------------------------------------------------------------

                1               2               3               4               5               6               7               8               9              10
               11              12              13              14              15              16              17              18              19              20
               21              22              23              24              25
 ................................................................................................................................................................
   1  3.928349470     3.303534830     3.419259266     4.067325726     4.164028309     4.352793522     4.505402174     4.602397541     4.663192387     4.704723435    
      4.740025729     4.775221467     4.811941972     4.849637336     4.881383283     4.901345562     4.924209823     4.940190757     4.945301372     4.937532987    
      4.911203180     4.872124313     4.822222751     4.763927897     4.703594009    
1
  CONCENTRATION IN LAYER   7 AT END OF TIME STEP 200 IN STRESS PERIOD    1
  ---------------------------------------------------------------------------

                1               2               3               4               5               6               7               8               9              10
               11              12              13              14              15              16              17              18              19              20
               21              22              23              24              25
 ................................................................................................................................................................
   1  3.928349470     4.036215901     4.126745129     3.982249488     4.111562045     4.299470750     4.464927412     4.578521709     4.650674359     4.698368619    
      4.736342870     4.773369865     4.811462034     4.849422193     4.881305395     4.901069095     4.924008012     4.940085414     4.945247175     4.937522559    
      4.911203942     4.872126010     4.822223627     4.763928236     4.703594161    
1
  CONCENTRATION IN LAYER   8 AT END OF TIME STEP 200 IN STRESS PERIOD    1
  ---------------------------------------------------------------------------

                1               2               3               4               5               6               7               8               9              10
               11              12              13              14              15              16              17              18              19              20
               21              22              23              24              25
 ................................................................................................................................................................
   1  3.928349470     3.981237955     3.825298286     3.925273533     4.072694392     4.261088865     4.433922521     4.559090518     4.640132382     4.692968371    
      4.733299874     4.771581430     4.811225133     4.849260079     4.881230737     4.900829200     4.923835515     4.939995823     4.945201312     4.937513636    
      4.911204583     4.872127460     4.822224374     4.763928518     4.703594304    
1
  CONCENTRATION IN LAYER   9 AT END OF TIME STEP 200 IN STRESS PERIOD    1
  ---------------------------------------------------------------------------

                1               2               3               4               5               6               7               8               9              10
               11              12              13              14              15              16              17              18              19              20
               21              22              23              24              25
 ................................................................................................................................................................
   1  3.928349470     3.921606392     3.846222940     3.892186998     4.046063346     4.235731095     4.413085705     4.545404498     4.632539686     4.689048803    
      4.731121059     4.770202948     4.811121096     4.849152403     4.881171428     4.900652133     4.923709676     4.939930725     4.945168170     4.937507100    
      4.911205044     4.872128518     4.822224921     4.763928709     4.703594439    
1
  CONCENTRATION IN LAYER  10 AT END OF TIME STEP 200 IN STRESS PERIOD    1
  ---------------------------------------------------------------------------

                1               2               3               4               5               6               7               8               9              10
               11              12              13              14              15              16              17              18              19              20
               21              22              23              24              25
 ................................................................................................................................................................
   1  3.928349470     3.917157529     3.854592174     3.876984904     4.032665577     4.223053318     4.402600629     4.538356173     4.628571843     4.686989677    
      4.729983894     4.769457973     4.811085753     4.849097710     4.881138334     4.900558130     4.923643335     4.939896483     4.945150850     4.937503617    
      4.911205285     4.872129079     4.822225215     4.763928774     4.703594574    

 CONCENTRATION WILL BE SAVED ON UNIT 2007 AT END OF TIME STEP  200, STRESS PERIOD    1


  MASS BUDGET FOR ENTIRE MODEL AT END OF TIME STEP  200, STRESS PERIOD   1
  ---------------------------------------------------------------------------------------------------

     CUMULATIVE MASS      M       RATES FOR THIS TIME STEP      M/T          PACKAGE NAME    
     ------------------                 ------------------------                     ----------------

           IN:                                      IN:
           ---                                      ---
     STORAGE-AQUEOUS =        1184.0695       STORAGE-AQUEOUS =           0.5430     MST                              
                 CHD =          61.3181                   CHD =       3.0659E-02     SSM_CHD                          
                 CNC =        1320.5452                   CNC =           0.7127     CNC                              

            TOTAL IN =        2565.9329              TOTAL IN =           1.2864

          OUT:                                     OUT:
          ----                                     ----
     STORAGE-AQUEOUS =         860.4585       STORAGE-AQUEOUS =           0.3065     MST                              
                 CHD =        1691.3285                   CHD =           0.9799     SSM_CHD                          
                 CNC =          14.1458                   CNC =           0.0000     CNC                              

           TOTAL OUT =        2565.9329             TOTAL OUT =           1.2864

            IN - OUT =      -1.0055E-07              IN - OUT =      -2.4359E-11

 PERCENT DISCREPANCY =          -0.00     PERCENT DISCREPANCY =          -0.00




         TIME SUMMARY AT END OF TIME STEP  200 IN STRESS PERIOD    1
                    SECONDS     MINUTES      HOURS       DAYS        YEARS
                    -----------------------------------------------------------
   TIME STEP LENGTH 8.64000E+05  14400.      240.00      10.000     2.73785E-02
 STRESS PERIOD TIME 1.72800E+08 2.88000E+06  48000.      2000.0      5.4757    
         TOTAL TIME 1.72800E+08 2.88000E+06  48000.      2000.0      5.4757    


end timestep

