                                   MODFLOW 6
                U.S. GEOLOGICAL SURVEY MODULAR HYDROLOGIC MODEL
                       GROUNDWATER TRANSPORT MODEL (GWT)
                VERSION 6.5.0.dev0+prt (preliminary) 10/07/2023
                               ***DEVELOP MODE***

   MODFLOW 6 compiled Oct 07 2023 02:19:02 with Intel(R) Fortran Intel(R) 64
   Compiler Classic for applications running on Intel(R) 64, Version 2021.7.0
                             Build 20220726_000000

This software is preliminary or provisional and is subject to 
revision. It is being provided to meet the need for timely best 
science. The software has not received final approval by the U.S. 
Geological Survey (USGS). No warranty, expressed or implied, is made 
by the USGS or the U.S. Government as to the functionality of the 
software and related material nor shall the fact of release 
constitute any such warranty. The software is provided on the 
condition that neither the USGS nor the U.S. Government shall be held 
liable for any damages resulting from the authorized or unauthorized 
use of the software.


As a work of the United States Government, this USGS product is 
in the public domain within the United States. You can copy, 
modify, distribute, and perform the work, even for commercial 
purposes, all without asking permission. Additionally, USGS 
waives copyright and related rights in the work worldwide 
through CC0 1.0 Universal Public Domain Dedication 
(https://creativecommons.org/publicdomain/zero/1.0/).

The following GNU Lesser General Public License (LGPL) libraries
are used in this USGS product:

    SPARSKIT version 2.0
      ilut, luson, and qsplit 
      (https://www-users.cse.umn.edu/~saad/software/SPARSKIT/)

    RCM - Reverse Cuthill McKee Ordering
      (https://people.math.sc.edu/Burkardt/f_src/rcm/rcm.html)

    BLAS - Basic Linear Algebra Subprograms Level 1
      (https://people.math.sc.edu/Burkardt/f_src/blas1_d/blas1_d.html)

    SPARSEKIT - Sparse Matrix Utility Package
      amux, dperm, dvperm, rperm, and cperm
      (https://people.sc.fsu.edu/~jburkardt/f77_src/sparsekit/sparsekit.html)

The following BSD-3 License libraries are used in this USGS product:

    Modern Fortran DAG Library
      Copyright (c) 2018, Jacob Williams
      All rights reserved.
      (https://github.com/jacobwilliams/daglib)

MODFLOW 6 compiler options: /Isrc\libmf6core.a.p /Isrc /I..\src
/Isrc\libmf6_external.a.p /MTd /nologo /warn:general /warn:truncated_source
/stand:f08 /Zi /traceback /O2 /fpe:0 /heap-arrays:0 /traceback /fpp
/Qdiag-disable:7416 /Qdiag-disable:7025 /Qdiag-disable:5268
/Fdsrc\libmf6core.a.p\Utilities_compilerversion.F90.pdb
/module:src\libmf6core.a.p
/Fosrc/libmf6core.a.p/Utilities_compilerversion.F90.obj /c

System command used to initiate simulation:
c:\Users\portega\anaconda3\envs\mf6rtm\python.exe -m ipykernel_launcher --f=c:\Users\portega\AppData\Roaming\jupyter\runtime\kernel-v2-17404NqyrdJ157y2B.json

MODFLOW was compiled using uniform precision.

Real Variables
  KIND: 8
  TINY (smallest non-zero value):    2.225074-308
  HUGE (largest value):    1.797693+308
  PRECISION: 15
  SIZE IN BITS: 64

Integer Variables
  KIND: 4
  HUGE (largest value): 2147483647
  SIZE IN BITS: 32

Long Integer Variables
  KIND: 8
  HUGE (largest value): 9223372036854775807
  SIZE IN BITS: 64

Logical Variables
  KIND: 4
  SIZE IN BITS: 32
 
 NAMEFILE OPTIONS:
 END NAMEFILE OPTIONS:

 DIS -- STRUCTURED GRID DISCRETIZATION PACKAGE, VERSION 2 : 3/27/2014 - INPUT READ FROM MEMPATH: __INPUT__/C/DIS                                   


 DSP-- DISPERSION PACKAGE, VERSION 1, 1/24/2018 INPUT READ FROM MEMPATH: __INPUT__/C/DSP                                   


 Setting Discretization Options
    Model length unit [0=UND, 1=FEET, 2=METERS, 3=CENTIMETERS] set as 2
 End Setting Discretization Options

 Setting Discretization Dimensions
    NLAY = 10
    NROW = 1
    NCOL = 25
 End Setting Discretization Dimensions

 Setting Discretization Griddata
    DELR set from input file
    DELC set from input file
    TOP set from input file
    BOTM set from input file
    IDOMAIN set from input file
 End Setting Discretization Griddata


 FMI -- FLOW MODEL INTERFACE,' VERSION 2, 8/17/2023
  FLOWS PROVIDED BY A GWF MODEL IN THIS SIMULATION

 ADV-- ADVECTION PACKAGE, VERSION 1, 8/25/2017 INPUT READ FROM UNIT 1310


 # File generated by Flopy version 3.5.0.dev0 on 07/12/2024 at 11:54:47.
 PROCESSING ADVECTION OPTIONS
    ADVECTION WEIGHTING SCHEME HAS BEEN SET TO: TVD
 END OF ADVECTION OPTIONS
 Setting DSP Options
    XT3D formulation [0=INACTIVE, 1=ACTIVE, 3=ACTIVE RHS] set to: 0
 End Setting DSP Options

 Setting DSP Griddata
    ALH set from input file
    ATH1 set from input file
    ATV set from input file
 End Setting DSP Griddata


 CNC   -- CNC PACKAGE, VERSION 8, 2/22/2014 INPUT READ FROM UNIT 1344
 # File generated by Flopy version 3.5.0.dev0 on 07/12/2024 at 11:54:47.

 PROCESSING CNC OPTIONS
    CNC FLOWS WILL BE PRINTED TO LISTING FILE.
    FLOWS WILL BE SAVED TO BUDGET FILE SPECIFIED IN OUTPUT CONTROL
 END OF CNC OPTIONS

 PROCESSING CNC DIMENSIONS
    MAXBOUND =       7
 END OF CNC DIMENSIONS

 IC -- INITIAL CONDITIONS PACKAGE, VERSION 8, 3/28/2015 INPUT READ FROM UNIT 1308
 # File generated by Flopy version 3.5.0.dev0 on 07/12/2024 at 11:54:47.
 PROCESSING GRIDDATA

 OPENED C.ic_strt_layer1.txt
 FILE TYPE:OPEN/CLOSE   UNIT 1994   STATUS:OLD                 
 FORMAT:FORMATTED              ACCESS:SEQUENTIAL          
 ACTION:READ                


 OPENED C.ic_strt_layer2.txt
 FILE TYPE:OPEN/CLOSE   UNIT 1995   STATUS:OLD                 
 FORMAT:FORMATTED              ACCESS:SEQUENTIAL          
 ACTION:READ                


 OPENED C.ic_strt_layer3.txt
 FILE TYPE:OPEN/CLOSE   UNIT 1996   STATUS:OLD                 
 FORMAT:FORMATTED              ACCESS:SEQUENTIAL          
 ACTION:READ                


 OPENED C.ic_strt_layer4.txt
 FILE TYPE:OPEN/CLOSE   UNIT 1997   STATUS:OLD                 
 FORMAT:FORMATTED              ACCESS:SEQUENTIAL          
 ACTION:READ                


 OPENED C.ic_strt_layer5.txt
 FILE TYPE:OPEN/CLOSE   UNIT 1998   STATUS:OLD                 
 FORMAT:FORMATTED              ACCESS:SEQUENTIAL          
 ACTION:READ                


 OPENED C.ic_strt_layer6.txt
 FILE TYPE:OPEN/CLOSE   UNIT 1999   STATUS:OLD                 
 FORMAT:FORMATTED              ACCESS:SEQUENTIAL          
 ACTION:READ                


 OPENED C.ic_strt_layer7.txt
 FILE TYPE:OPEN/CLOSE   UNIT 2000   STATUS:OLD                 
 FORMAT:FORMATTED              ACCESS:SEQUENTIAL          
 ACTION:READ                


 OPENED C.ic_strt_layer8.txt
 FILE TYPE:OPEN/CLOSE   UNIT 2001   STATUS:OLD                 
 FORMAT:FORMATTED              ACCESS:SEQUENTIAL          
 ACTION:READ                


 OPENED C.ic_strt_layer9.txt
 FILE TYPE:OPEN/CLOSE   UNIT 2002   STATUS:OLD                 
 FORMAT:FORMATTED              ACCESS:SEQUENTIAL          
 ACTION:READ                


 OPENED C.ic_strt_layer10.txt
 FILE TYPE:OPEN/CLOSE   UNIT 2003   STATUS:OLD                 
 FORMAT:FORMATTED              ACCESS:SEQUENTIAL          
 ACTION:READ                

 END PROCESSING GRIDDATA

 MST -- MOBILE STORAGE AND TRANSFER PACKAGE, VERSION 1, 7/29/2020 INPUT READ FROM UNIT 1309


 # File generated by Flopy version 3.5.0.dev0 on 07/12/2024 at 11:54:47.
 PROCESSING MOBILE STORAGE AND TRANSFER OPTIONS
 END OF MOBILE STORAGE AND TRANSFER OPTIONS
 PROCESSING GRIDDATA

 OPENED C.mst_porosity.txt
 FILE TYPE:OPEN/CLOSE   UNIT 2004   STATUS:OLD                 
 FORMAT:FORMATTED              ACCESS:SEQUENTIAL          
 ACTION:READ                

 END PROCESSING GRIDDATA

 SSM -- SOURCE-SINK MIXING PACKAGE, VERSION 1, 8/25/2017 INPUT READ FROM UNIT 1342


 # File generated by Flopy version 3.5.0.dev0 on 07/12/2024 at 11:54:47.
 PROCESSING SSM OPTIONS
    SSM FLOW INFORMATION WILL BE PRINTED TO LISTING FILE WHENEVER ICBCFL IS NOT ZERO.
    CELL-BY-CELL FLOW INFORMATION WILL BE SAVED TO BINARY FILE WHENEVER ICBCFL IS NOT ZERO.
 END OF SSM OPTIONS

 OPENED C.ssm_sources.txt
 FILE TYPE:OPEN/CLOSE   UNIT 2005   STATUS:OLD                 
 FORMAT:FORMATTED              ACCESS:SEQUENTIAL          
 ACTION:READ                

 PROCESSING SOURCES
 AUX SOURCE DETECTED.
    USING AUX COLUMN 5 IN PACKAGE CHD
 END PROCESSING SOURCES
 OPTIONAL FILEINPUT BLOCK NOT FOUND.  CONTINUING.
      THE LAST TIME STEP WILL BE PRINTED
      THE LAST TIME STEP WILL BE PRINTED
 # File generated by Flopy version 3.5.0.dev0 on 07/12/2024 at 11:54:47.

 PROCESSING OC OPTIONS

    BUDGET INFORMATION WILL BE WRITTEN TO:
      UNIT NUMBER: 2006
      FILE NAME: C.cbb

 OPENED C.cbb
 FILE TYPE:DATA(BINARY)   UNIT 2006   STATUS:REPLACE             
 FORMAT:UNFORMATTED            ACCESS:STREAM              
 ACTION:READWRITE           

    CONCENTRATION INFORMATION WILL BE WRITTEN TO:
      UNIT NUMBER: 2007
      FILE NAME: C.ucn

 OPENED C.ucn
 FILE TYPE:DATA(BINARY)   UNIT 2007   STATUS:REPLACE             
 FORMAT:UNFORMATTED            ACCESS:STREAM              
 ACTION:READWRITE           

 END OF OC OPTIONS

start timestep kper="1" kstp="1" mode="normal"


 BEGIN READING OUTPUT CONTROL FOR STRESS PERIOD 1
      ALL TIME STEPS WILL BE SAVED
      ALL TIME STEPS WILL BE SAVED
      ALL TIME STEPS WILL BE PRINTED
      ALL TIME STEPS WILL BE PRINTED

 END READING OUTPUT CONTROL FOR STRESS PERIOD 1

 OPENED C.cnc_stress_period_data_1.txt
 FILE TYPE:OPEN/CLOSE   UNIT 2138   STATUS:OLD                 
 FORMAT:FORMATTED              ACCESS:SEQUENTIAL          
 ACTION:READ                

 UBDSV06 SAVING  SOURCE-SINK MIX IN MODEL C                PACKAGE C               CONNECTED TO MODEL C                PACKAGE SSM              ON UNIT   2006 AT TIME STEP      1, STRESS PERIOD      1
 UBDSV06 SAVING              CNC IN MODEL C                PACKAGE C               CONNECTED TO MODEL C                PACKAGE CNC              ON UNIT   2006 AT TIME STEP      1, STRESS PERIOD      1

 SSM PACKAGE (SSM) FLOW RATES   PERIOD      1   STEP        1
 ------------------------------------------------------------------------------------------------
   NUMBER   CELLID                   BOUND Q        SSM CONC          RATE         PACKAGE NAME  
 ------------------------------------------------------------------------------------------------
     1      (1,1,1)               2.08333361E-02  0.49054516      1.02196922E-02       CHD       
     2      (2,1,1)               2.08333361E-02  0.49054516      1.02196922E-02       CHD       
     3      (3,1,1)               2.08333361E-02  0.49054516      1.02196922E-02       CHD       
     4      (4,1,1)               0.0000000       0.0000000       0.0000000            CHD       
     5      (5,1,1)               0.0000000       0.0000000       0.0000000            CHD       
     6      (6,1,1)               0.0000000       0.0000000       0.0000000            CHD       
     7      (7,1,1)               0.0000000       0.0000000       0.0000000            CHD       
     8      (8,1,1)               0.0000000       0.0000000       0.0000000            CHD       
     9      (9,1,1)               0.0000000       0.0000000       0.0000000            CHD       
     10     (10,1,1)              0.0000000       0.0000000       0.0000000            CHD       
     11     (1,1,25)             -2.08333402E-02  3.9303726      -8.18827898E-02       CHD       
     12     (2,1,25)             -2.08333402E-02  3.9303726      -8.18827899E-02       CHD       
     13     (3,1,25)             -2.08333402E-02  3.9303726      -8.18827899E-02       CHD       
     14     (4,1,25)             -2.08333403E-02  3.9303726      -8.18827900E-02       CHD       
     15     (5,1,25)             -2.08333403E-02  3.9303726      -8.18827901E-02       CHD       
     16     (6,1,25)             -2.08333403E-02  3.9303726      -8.18827901E-02       CHD       
     17     (7,1,25)             -2.08333403E-02  3.9303726      -8.18827901E-02       CHD       
     18     (8,1,25)             -2.08333403E-02  3.9303726      -8.18827902E-02       CHD       
     19     (9,1,25)             -2.08333403E-02  3.9303726      -8.18827901E-02       CHD       
     20     (10,1,25)            -2.08333403E-02  3.9303726      -8.18827901E-02       CHD       
 ------------------------------------------------------------------------------------------------




 CNC PACKAGE (CNC) FLOW RATES   PERIOD      1   STEP        1
 -----------------------------------------------
   NUMBER   CELLID                    RATE      
 -----------------------------------------------
     1      (4,1,1)               0.13231130    
     2      (5,1,1)               8.19064659E-02
     3      (6,1,1)               8.18563273E-02
     4      (7,1,1)               8.18361989E-02
     5      (8,1,1)               8.18281011E-02
     6      (9,1,1)               8.18248589E-02
     7      (10,1,1)              8.18237175E-02
 -----------------------------------------------



1
  CONCENTRATION IN LAYER   1 AT END OF TIME STEP   1 IN STRESS PERIOD    1
  ---------------------------------------------------------------------------

                1               2               3               4               5               6               7               8               9              10
               11              12              13              14              15              16              17              18              19              20
               21              22              23              24              25
 ................................................................................................................................................................
   1  4.584288995     4.043249381     3.941022209     3.931325125     3.930514467     3.930402433     3.930317419     3.930361241     3.930370658     3.930372522    
      3.930372615     3.930372620     3.930372606     3.930372600     3.930372602     3.930372604     3.930372603     3.930372600     3.930372598     3.930372599    
      3.930372602     3.930372605     3.930372608     3.930372612     3.930372614    
1
  CONCENTRATION IN LAYER   2 AT END OF TIME STEP   1 IN STRESS PERIOD    1
  ---------------------------------------------------------------------------

                1               2               3               4               5               6               7               8               9              10
               11              12              13              14              15              16              17              18              19              20
               21              22              23              24              25
 ................................................................................................................................................................
   1  4.523694081     4.029223088     3.939900143     3.931249653     3.930529876     3.930397330     3.930305503     3.930360538     3.930370559     3.930372539    
      3.930372625     3.930372622     3.930372599     3.930372590     3.930372593     3.930372597     3.930372595     3.930372591     3.930372588     3.930372590    
      3.930372594     3.930372600     3.930372605     3.930372612     3.930372614    
1
  CONCENTRATION IN LAYER   3 AT END OF TIME STEP   1 IN STRESS PERIOD    1
  ---------------------------------------------------------------------------

                1               2               3               4               5               6               7               8               9              10
               11              12              13              14              15              16              17              18              19              20
               21              22              23              24              25
 ................................................................................................................................................................
   1  4.352653859     3.999542936     3.937996705     3.931125315     3.930554832     3.930383731     3.930291144     3.930359853     3.930370439     3.930372571    
      3.930372641     3.930372626     3.930372587     3.930372574     3.930372581     3.930372587     3.930372584     3.930372576     3.930372572     3.930372575    
      3.930372583     3.930372592     3.930372601     3.930372611     3.930372614    
1
  CONCENTRATION IN LAYER   4 AT END OF TIME STEP   1 IN STRESS PERIOD    1
  ---------------------------------------------------------------------------

                1               2               3               4               5               6               7               8               9              10
               11              12              13              14              15              16              17              18              19              20
               21              22              23              24              25
 ................................................................................................................................................................
   1  3.928349470     3.957787353     3.936281093     3.930994447     3.930576425     3.930363892     3.930283976     3.930359855     3.930370393     3.930372600    
      3.930372659     3.930372630     3.930372577     3.930372560     3.930372571     3.930372581     3.930372576     3.930372565     3.930372559     3.930372563    
      3.930372573     3.930372586     3.930372596     3.930372609     3.930372613    
1
  CONCENTRATION IN LAYER   5 AT END OF TIME STEP   1 IN STRESS PERIOD    1
  ---------------------------------------------------------------------------

                1               2               3               4               5               6               7               8               9              10
               11              12              13              14              15              16              17              18              19              20
               21              22              23              24              25
 ................................................................................................................................................................
   1  3.928349470     3.941101760     3.934092642     3.930842390     3.930583396     3.930344935     3.930286426     3.930360697     3.930370466     3.930372620    
      3.930372670     3.930372632     3.930372571     3.930372554     3.930372567     3.930372578     3.930372572     3.930372559     3.930372552     3.930372556    
      3.930372568     3.930372581     3.930372593     3.930372608     3.930372613    
1
  CONCENTRATION IN LAYER   6 AT END OF TIME STEP   1 IN STRESS PERIOD    1
  ---------------------------------------------------------------------------

                1               2               3               4               5               6               7               8               9              10
               11              12              13              14              15              16              17              18              19              20
               21              22              23              24              25
 ................................................................................................................................................................
   1  3.928349470     3.934553740     3.932414472     3.930748226     3.930573743     3.930332648     3.930296154     3.930362157     3.930370648     3.930372629    
      3.930372674     3.930372633     3.930372570     3.930372552     3.930372566     3.930372579     3.930372573     3.930372558     3.930372550     3.930372554    
      3.930372566     3.930372580     3.930372592     3.930372607     3.930372613    
1
  CONCENTRATION IN LAYER   7 AT END OF TIME STEP   1 IN STRESS PERIOD    1
  ---------------------------------------------------------------------------

                1               2               3               4               5               6               7               8               9              10
               11              12              13              14              15              16              17              18              19              20
               21              22              23              24              25
 ................................................................................................................................................................
   1  3.928349470     3.931382150     3.931983652     3.930720750     3.930550480     3.930329212     3.930309484     3.930363880     3.930370893     3.930372630    
      3.930372673     3.930372633     3.930372572     3.930372555     3.930372569     3.930372581     3.930372575     3.930372561     3.930372552     3.930372557    
      3.930372568     3.930372581     3.930372592     3.930372607     3.930372613    
1
  CONCENTRATION IN LAYER   8 AT END OF TIME STEP   1 IN STRESS PERIOD    1
  ---------------------------------------------------------------------------

                1               2               3               4               5               6               7               8               9              10
               11              12              13              14              15              16              17              18              19              20
               21              22              23              24              25
 ................................................................................................................................................................
   1  3.928349470     3.930372114     3.931482726     3.930642828     3.930520920     3.930333920     3.930323078     3.930365519     3.930371145     3.930372624    
      3.930372666     3.930372632     3.930372577     3.930372561     3.930372573     3.930372584     3.930372578     3.930372566     3.930372558     3.930372562    
      3.930372571     3.930372584     3.930372594     3.930372608     3.930372613    
1
  CONCENTRATION IN LAYER   9 AT END OF TIME STEP   1 IN STRESS PERIOD    1
  ---------------------------------------------------------------------------

                1               2               3               4               5               6               7               8               9              10
               11              12              13              14              15              16              17              18              19              20
               21              22              23              24              25
 ................................................................................................................................................................
   1  3.928349470     3.930214215     3.931049872     3.930552691     3.930486835     3.930343810     3.930334257     3.930366777     3.930371353     3.930372611    
      3.930372653     3.930372629     3.930372584     3.930372571     3.930372580     3.930372589     3.930372585     3.930372574     3.930372568     3.930372571    
      3.930372579     3.930372589     3.930372597     3.930372609     3.930372613    
1
  CONCENTRATION IN LAYER  10 AT END OF TIME STEP   1 IN STRESS PERIOD    1
  ---------------------------------------------------------------------------

                1               2               3               4               5               6               7               8               9              10
               11              12              13              14              15              16              17              18              19              20
               21              22              23              24              25
 ................................................................................................................................................................
   1  3.928349470     3.930329208     3.930744220     3.930489517     3.930462558     3.930352583     3.930340930     3.930367445     3.930371472     3.930372586    
      3.930372631     3.930372625     3.930372598     3.930372588     3.930372593     3.930372598     3.930372596     3.930372591     3.930372587     3.930372588    
      3.930372593     3.930372599     3.930372604     3.930372610     3.930372613    

 CONCENTRATION WILL BE SAVED ON UNIT 2007 AT END OF TIME STEP    1, STRESS PERIOD    1


  MASS BUDGET FOR ENTIRE MODEL AT END OF TIME STEP    1, STRESS PERIOD   1
  ---------------------------------------------------------------------------------------------------

     CUMULATIVE MASS      M       RATES FOR THIS TIME STEP      M/T          PACKAGE NAME    
     ------------------                 ------------------------                     ----------------

           IN:                                      IN:
           ---                                      ---
     STORAGE-AQUEOUS =           1.6473       STORAGE-AQUEOUS =           0.1647     MST                              
                 CHD =           0.3066                   CHD =       3.0659E-02     SSM_CHD                          
                 CNC =           6.2339                   CNC =           0.6234     CNC                              

            TOTAL IN =           8.1877              TOTAL IN =           0.8188

          OUT:                                     OUT:
          ----                                     ----
     STORAGE-AQUEOUS =       1.7546E-06       STORAGE-AQUEOUS =       1.7546E-07     MST                              
                 CHD =           8.1877                   CHD =           0.8188     SSM_CHD                          
                 CNC =           0.0000                   CNC =           0.0000     CNC                              

           TOTAL OUT =           8.1877             TOTAL OUT =           0.8188

            IN - OUT =      -2.1843E-09              IN - OUT =      -2.1843E-10

 PERCENT DISCREPANCY =          -0.00     PERCENT DISCREPANCY =          -0.00




         TIME SUMMARY AT END OF TIME STEP    1 IN STRESS PERIOD    1
                    SECONDS     MINUTES      HOURS       DAYS        YEARS
                    -----------------------------------------------------------
   TIME STEP LENGTH 8.64000E+05  14400.      240.00      10.000     2.73785E-02
 STRESS PERIOD TIME 8.64000E+05  14400.      240.00      10.000     2.73785E-02
         TOTAL TIME 8.64000E+05  14400.      240.00      10.000     2.73785E-02


end timestep


start timestep kper="1" kstp="2" mode="normal"

 UBDSV06 SAVING  SOURCE-SINK MIX IN MODEL C                PACKAGE C               CONNECTED TO MODEL C                PACKAGE SSM              ON UNIT   2006 AT TIME STEP      2, STRESS PERIOD      1
 UBDSV06 SAVING              CNC IN MODEL C                PACKAGE C               CONNECTED TO MODEL C                PACKAGE CNC              ON UNIT   2006 AT TIME STEP      2, STRESS PERIOD      1

 SSM PACKAGE (SSM) FLOW RATES   PERIOD      1   STEP        2
 ------------------------------------------------------------------------------------------------
   NUMBER   CELLID                   BOUND Q        SSM CONC          RATE         PACKAGE NAME  
 ------------------------------------------------------------------------------------------------
     1      (1,1,1)               2.08333319E-02  0.49054516      1.02196901E-02       CHD       
     2      (2,1,1)               2.08333319E-02  0.49054516      1.02196901E-02       CHD       
     3      (3,1,1)               2.08333319E-02  0.49054516      1.02196901E-02       CHD       
     4      (4,1,1)               0.0000000       0.0000000       0.0000000            CHD       
     5      (5,1,1)               0.0000000       0.0000000       0.0000000            CHD       
     6      (6,1,1)               0.0000000       0.0000000       0.0000000            CHD       
     7      (7,1,1)               0.0000000       0.0000000       0.0000000            CHD       
     8      (8,1,1)               0.0000000       0.0000000       0.0000000            CHD       
     9      (9,1,1)               0.0000000       0.0000000       0.0000000            CHD       
     10     (10,1,1)              0.0000000       0.0000000       0.0000000            CHD       
     11     (1,1,25)             -2.08333370E-02  3.9303726      -8.18827771E-02       CHD       
     12     (2,1,25)             -2.08333370E-02  3.9303726      -8.18827771E-02       CHD       
     13     (3,1,25)             -2.08333370E-02  3.9303726      -8.18827772E-02       CHD       
     14     (4,1,25)             -2.08333370E-02  3.9303726      -8.18827772E-02       CHD       
     15     (5,1,25)             -2.08333370E-02  3.9303726      -8.18827772E-02       CHD       
     16     (6,1,25)             -2.08333370E-02  3.9303726      -8.18827773E-02       CHD       
     17     (7,1,25)             -2.08333370E-02  3.9303726      -8.18827773E-02       CHD       
     18     (8,1,25)             -2.08333370E-02  3.9303726      -8.18827773E-02       CHD       
     19     (9,1,25)             -2.08333370E-02  3.9303726      -8.18827773E-02       CHD       
     20     (10,1,25)            -2.08333370E-02  3.9303726      -8.18827773E-02       CHD       
 ------------------------------------------------------------------------------------------------




 CNC PACKAGE (CNC) FLOW RATES   PERIOD      1   STEP        2
 -----------------------------------------------
   NUMBER   CELLID                    RATE      
 -----------------------------------------------
     1      (4,1,1)               8.17920228E-02
     2      (5,1,1)               8.16150620E-02
     3      (6,1,1)               8.17194620E-02
     4      (7,1,1)               8.17746979E-02
     5      (8,1,1)               8.18011412E-02
     6      (9,1,1)               8.18121852E-02
     7      (10,1,1)              8.18157180E-02
 -----------------------------------------------



1
  CONCENTRATION IN LAYER   1 AT END OF TIME STEP   2 IN STRESS PERIOD    1
  ---------------------------------------------------------------------------

                1               2               3               4               5               6               7               8               9              10
               11              12              13              14              15              16              17              18              19              20
               21              22              23              24              25
 ................................................................................................................................................................
   1  5.041565091     4.230500018     3.936869559     3.930167847     3.930468682     3.930405284     3.930324408     3.930354042     3.930364870     3.930372342    
      3.930372624     3.930372732     3.930372633     3.930372598     3.930372592     3.930372590     3.930372587     3.930372585     3.930372584     3.930372591    
      3.930372585     3.930372596     3.930372600     3.930372611     3.930372614    
1
  CONCENTRATION IN LAYER   2 AT END OF TIME STEP   2 IN STRESS PERIOD    1
  ---------------------------------------------------------------------------

                1               2               3               4               5               6               7               8               9              10
               11              12              13              14              15              16              17              18              19              20
               21              22              23              24              25
 ................................................................................................................................................................
   1  4.913770153     4.191258333     3.936881933     3.930290643     3.930490338     3.930398508     3.930315680     3.930361329     3.930364194     3.930371636    
      3.930372998     3.930372730     3.930372625     3.930372594     3.930372585     3.930372580     3.930372576     3.930372574     3.930372575     3.930372582    
      3.930372577     3.930372591     3.930372596     3.930372611     3.930372613    
1
  CONCENTRATION IN LAYER   3 AT END OF TIME STEP   2 IN STRESS PERIOD    1
  ---------------------------------------------------------------------------

                1               2               3               4               5               6               7               8               9              10
               11              12              13              14              15              16              17              18              19              20
               21              22              23              24              25
 ................................................................................................................................................................
   1  4.593336905     4.114023182     3.937868354     3.930600864     3.930529479     3.930382755     3.930309478     3.930369779     3.930363397     3.930371579    
      3.930373012     3.930372699     3.930372617     3.930372588     3.930372575     3.930372565     3.930372558     3.930372558     3.930372561     3.930372567    
      3.930372569     3.930372582     3.930372591     3.930372609     3.930372613    
1
  CONCENTRATION IN LAYER   4 AT END OF TIME STEP   2 IN STRESS PERIOD    1
  ---------------------------------------------------------------------------

                1               2               3               4               5               6               7               8               9              10
               11              12              13              14              15              16              17              18              19              20
               21              22              23              24              25
 ................................................................................................................................................................
   1  3.928349470     4.012635135     3.943398336     3.931170295     3.930572508     3.930363126     3.930317855     3.930367014     3.930363907     3.930371786    
      3.930373006     3.930372676     3.930372611     3.930372584     3.930372567     3.930372553     3.930372543     3.930372545     3.930372547     3.930372554    
      3.930372561     3.930372573     3.930372585     3.930372607     3.930372613    
1
  CONCENTRATION IN LAYER   5 AT END OF TIME STEP   2 IN STRESS PERIOD    1
  ---------------------------------------------------------------------------

                1               2               3               4               5               6               7               8               9              10
               11              12              13              14              15              16              17              18              19              20
               21              22              23              24              25
 ................................................................................................................................................................
   1  3.928349470     3.966430467     3.940978077     3.931367386     3.930596220     3.930346941     3.930329991     3.930363762     3.930363820     3.930371951    
      3.930373006     3.930372665     3.930372608     3.930372582     3.930372562     3.930372546     3.930372533     3.930372539     3.930372539     3.930372546    
      3.930372556     3.930372566     3.930372581     3.930372605     3.930372613    
1
  CONCENTRATION IN LAYER   6 AT END OF TIME STEP   2 IN STRESS PERIOD    1
  ---------------------------------------------------------------------------

                1               2               3               4               5               6               7               8               9              10
               11              12              13              14              15              16              17              18              19              20
               21              22              23              24              25
 ................................................................................................................................................................
   1  3.928349470     3.945374499     3.937945985     3.931297231     3.930591609     3.930337767     3.930340682     3.930362733     3.930363908     3.930372022    
      3.930373001     3.930372663     3.930372608     3.930372582     3.930372561     3.930372545     3.930372528     3.930372539     3.930372537     3.930372544    
      3.930372554     3.930372565     3.930372580     3.930372603     3.930372612    
1
  CONCENTRATION IN LAYER   7 AT END OF TIME STEP   2 IN STRESS PERIOD    1
  ---------------------------------------------------------------------------

                1               2               3               4               5               6               7               8               9              10
               11              12              13              14              15              16              17              18              19              20
               21              22              23              24              25
 ................................................................................................................................................................
   1  3.928349470     3.935176769     3.936470499     3.931114405     3.930563977     3.930336039     3.930348615     3.930363268     3.930364548     3.930372026    
      3.930372988     3.930372669     3.930372609     3.930372583     3.930372564     3.930372549     3.930372526     3.930372545     3.930372539     3.930372546    
      3.930372555     3.930372566     3.930372581     3.930372603     3.930372612    
1
  CONCENTRATION IN LAYER   8 AT END OF TIME STEP   2 IN STRESS PERIOD    1
  ---------------------------------------------------------------------------

                1               2               3               4               5               6               7               8               9              10
               11              12              13              14              15              16              17              18              19              20
               21              22              23              24              25
 ................................................................................................................................................................
   1  3.928349470     3.931151411     3.934975619     3.930894805     3.930527523     3.930340603     3.930351949     3.930364764     3.930365639     3.930371969    
      3.930372990     3.930372687     3.930372613     3.930372585     3.930372568     3.930372557     3.930372529     3.930372555     3.930372545     3.930372551    
      3.930372559     3.930372570     3.930372583     3.930372603     3.930372612    
1
  CONCENTRATION IN LAYER   9 AT END OF TIME STEP   2 IN STRESS PERIOD    1
  ---------------------------------------------------------------------------

                1               2               3               4               5               6               7               8               9              10
               11              12              13              14              15              16              17              18              19              20
               21              22              23              24              25
 ................................................................................................................................................................
   1  3.928349470     3.930033142     3.933482749     3.930817332     3.930499975     3.930349231     3.930348418     3.930366465     3.930367017     3.930371796    
      3.930373066     3.930372727     3.930372617     3.930372588     3.930372574     3.930372565     3.930372545     3.930372561     3.930372555     3.930372560    
      3.930372567     3.930372577     3.930372588     3.930372604     3.930372612    
1
  CONCENTRATION IN LAYER  10 AT END OF TIME STEP   2 IN STRESS PERIOD    1
  ---------------------------------------------------------------------------

                1               2               3               4               5               6               7               8               9              10
               11              12              13              14              15              16              17              18              19              20
               21              22              23              24              25
 ................................................................................................................................................................
   1  3.928349470     3.929858008     3.932579936     3.930829563     3.930488629     3.930356701     3.930343787     3.930363844     3.930368788     3.930371333    
      3.930373344     3.930372802     3.930372619     3.930372589     3.930372582     3.930372579     3.930372566     3.930372572     3.930372569     3.930372571    
      3.930372577     3.930372585     3.930372594     3.930372605     3.930372612    

 CONCENTRATION WILL BE SAVED ON UNIT 2007 AT END OF TIME STEP    2, STRESS PERIOD    1


  MASS BUDGET FOR ENTIRE MODEL AT END OF TIME STEP    2, STRESS PERIOD   1
  ---------------------------------------------------------------------------------------------------

     CUMULATIVE MASS      M       RATES FOR THIS TIME STEP      M/T          PACKAGE NAME    
     ------------------                 ------------------------                     ----------------

           IN:                                      IN:
           ---                                      ---
     STORAGE-AQUEOUS =           3.9044       STORAGE-AQUEOUS =           0.2257     MST                              
                 CHD =           0.6132                   CHD =       3.0659E-02     SSM_CHD                          
                 CNC =          11.9572                   CNC =           0.5723     CNC                              

            TOTAL IN =          16.4747              TOTAL IN =           0.8287

          OUT:                                     OUT:
          ----                                     ----
     STORAGE-AQUEOUS =       9.8733E-02       STORAGE-AQUEOUS =       9.8732E-03     MST                              
                 CHD =          16.3760                   CHD =           0.8188     SSM_CHD                          
                 CNC =           0.0000                   CNC =           0.0000     CNC                              

           TOTAL OUT =          16.4747             TOTAL OUT =           0.8287

            IN - OUT =      -1.3607E-09              IN - OUT =       8.2361E-11

 PERCENT DISCREPANCY =          -0.00     PERCENT DISCREPANCY =           0.00




         TIME SUMMARY AT END OF TIME STEP    2 IN STRESS PERIOD    1
                    SECONDS     MINUTES      HOURS       DAYS        YEARS
                    -----------------------------------------------------------
   TIME STEP LENGTH 8.64000E+05  14400.      240.00      10.000     2.73785E-02
 STRESS PERIOD TIME 1.72800E+06  28800.      480.00      20.000     5.47570E-02
         TOTAL TIME 1.72800E+06  28800.      480.00      20.000     5.47570E-02


end timestep


start timestep kper="1" kstp="3" mode="normal"

 UBDSV06 SAVING  SOURCE-SINK MIX IN MODEL C                PACKAGE C               CONNECTED TO MODEL C                PACKAGE SSM              ON UNIT   2006 AT TIME STEP      3, STRESS PERIOD      1
 UBDSV06 SAVING              CNC IN MODEL C                PACKAGE C               CONNECTED TO MODEL C                PACKAGE CNC              ON UNIT   2006 AT TIME STEP      3, STRESS PERIOD      1

 SSM PACKAGE (SSM) FLOW RATES   PERIOD      1   STEP        3
 ------------------------------------------------------------------------------------------------
   NUMBER   CELLID                   BOUND Q        SSM CONC          RATE         PACKAGE NAME  
 ------------------------------------------------------------------------------------------------
     1      (1,1,1)               2.08333325E-02  0.49054516      1.02196904E-02       CHD       
     2      (2,1,1)               2.08333325E-02  0.49054516      1.02196904E-02       CHD       
     3      (3,1,1)               2.08333325E-02  0.49054516      1.02196904E-02       CHD       
     4      (4,1,1)               0.0000000       0.0000000       0.0000000            CHD       
     5      (5,1,1)               0.0000000       0.0000000       0.0000000            CHD       
     6      (6,1,1)               0.0000000       0.0000000       0.0000000            CHD       
     7      (7,1,1)               0.0000000       0.0000000       0.0000000            CHD       
     8      (8,1,1)               0.0000000       0.0000000       0.0000000            CHD       
     9      (9,1,1)               0.0000000       0.0000000       0.0000000            CHD       
     10     (10,1,1)              0.0000000       0.0000000       0.0000000            CHD       
     11     (1,1,25)             -2.08333362E-02  3.9303726      -8.18827740E-02       CHD       
     12     (2,1,25)             -2.08333362E-02  3.9303726      -8.18827740E-02       CHD       
     13     (3,1,25)             -2.08333362E-02  3.9303726      -8.18827741E-02       CHD       
     14     (4,1,25)             -2.08333362E-02  3.9303726      -8.18827741E-02       CHD       
     15     (5,1,25)             -2.08333362E-02  3.9303726      -8.18827741E-02       CHD       
     16     (6,1,25)             -2.08333362E-02  3.9303726      -8.18827741E-02       CHD       
     17     (7,1,25)             -2.08333362E-02  3.9303726      -8.18827741E-02       CHD       
     18     (8,1,25)             -2.08333362E-02  3.9303726      -8.18827741E-02       CHD       
     19     (9,1,25)             -2.08333362E-02  3.9303726      -8.18827741E-02       CHD       
     20     (10,1,25)            -2.08333362E-02  3.9303726      -8.18827741E-02       CHD       
 ------------------------------------------------------------------------------------------------




 CNC PACKAGE (CNC) FLOW RATES   PERIOD      1   STEP        3
 -----------------------------------------------
   NUMBER   CELLID                    RATE      
 -----------------------------------------------
     1      (4,1,1)               4.94107710E-02
     2      (5,1,1)               8.11745839E-02
     3      (6,1,1)               8.14954464E-02
     4      (7,1,1)               8.16681177E-02
     5      (8,1,1)               8.17545484E-02
     6      (9,1,1)               8.17933345E-02
     7      (10,1,1)              8.18074398E-02
 -----------------------------------------------



1
  CONCENTRATION IN LAYER   1 AT END OF TIME STEP   3 IN STRESS PERIOD    1
  ---------------------------------------------------------------------------

                1               2               3               4               5               6               7               8               9              10
               11              12              13              14              15              16              17              18              19              20
               21              22              23              24              25
 ................................................................................................................................................................
   1  5.371392807     4.439850883     3.930841120     3.927036793     3.930044492     3.930367751     3.930345981     3.930341158     3.930357090     3.930367871    
      3.930372666     3.930373206     3.930372767     3.930372609     3.930372581     3.930372577     3.930372573     3.930372572     3.930372572     3.930372576    
      3.930372576     3.930372587     3.930372595     3.930372607     3.930372613    
1
  CONCENTRATION IN LAYER   2 AT END OF TIME STEP   3 IN STRESS PERIOD    1
  ---------------------------------------------------------------------------

                1               2               3               4               5               6               7               8               9              10
               11              12              13              14              15              16              17              18              19              20
               21              22              23              24              25
 ................................................................................................................................................................
   1  5.174968525     4.377858546     3.927882763     3.927319223     3.930106218     3.930367575     3.930346608     3.930343510     3.930355474     3.930367276    
      3.930372439     3.930373207     3.930372758     3.930372602     3.930372574     3.930372568     3.930372564     3.930372563     3.930372563     3.930372568    
      3.930372570     3.930372582     3.930372591     3.930372607     3.930372612    
1
  CONCENTRATION IN LAYER   3 AT END OF TIME STEP   3 IN STRESS PERIOD    1
  ---------------------------------------------------------------------------

                1               2               3               4               5               6               7               8               9              10
               11              12              13              14              15              16              17              18              19              20
               21              22              23              24              25
 ................................................................................................................................................................
   1  4.746091451     4.256685689     3.927456235     3.928258016     3.930230224     3.930366631     3.930350888     3.930345250     3.930353093     3.930366738    
      3.930372244     3.930373172     3.930372747     3.930372593     3.930372562     3.930372555     3.930372549     3.930372549     3.930372550     3.930372555    
      3.930372560     3.930372573     3.930372586     3.930372604     3.930372612    
1
  CONCENTRATION IN LAYER   4 AT END OF TIME STEP   3 IN STRESS PERIOD    1
  ---------------------------------------------------------------------------

                1               2               3               4               5               6               7               8               9              10
               11              12              13              14              15              16              17              18              19              20
               21              22              23              24              25
 ................................................................................................................................................................
   1  3.928349470     4.088384091     3.949059772     3.930353791     3.930392995     3.930365308     3.930360143     3.930344220     3.930350969     3.930366446    
      3.930372180     3.930373123     3.930372738     3.930372584     3.930372551     3.930372543     3.930372535     3.930372537     3.930372537     3.930372543    
      3.930372551     3.930372565     3.930372580     3.930372602     3.930372612    
1
  CONCENTRATION IN LAYER   5 AT END OF TIME STEP   3 IN STRESS PERIOD    1
  ---------------------------------------------------------------------------

                1               2               3               4               5               6               7               8               9              10
               11              12              13              14              15              16              17              18              19              20
               21              22              23              24              25
 ................................................................................................................................................................
   1  3.928349470     4.005339412     3.949621924     3.931631145     3.930530938     3.930364777     3.930370469     3.930342810     3.930349625     3.930366431    
      3.930372209     3.930373091     3.930372730     3.930372580     3.930372545     3.930372536     3.930372525     3.930372530     3.930372530     3.930372535    
      3.930372545     3.930372559     3.930372576     3.930372600     3.930372611    
1
  CONCENTRATION IN LAYER   6 AT END OF TIME STEP   3 IN STRESS PERIOD    1
  ---------------------------------------------------------------------------

                1               2               3               4               5               6               7               8               9              10
               11              12              13              14              15              16              17              18              19              20
               21              22              23              24              25
 ................................................................................................................................................................
   1  3.928349470     3.964606185     3.945473830     3.932049668     3.930602204     3.930364943     3.930378834     3.930342262     3.930349641     3.930366692    
      3.930372268     3.930373082     3.930372728     3.930372578     3.930372544     3.930372534     3.930372520     3.930372529     3.930372527     3.930372531    
      3.930372542     3.930372557     3.930372575     3.930372599     3.930372611    
1
  CONCENTRATION IN LAYER   7 AT END OF TIME STEP   3 IN STRESS PERIOD    1
  ---------------------------------------------------------------------------

                1               2               3               4               5               6               7               8               9              10
               11              12              13              14              15              16              17              18              19              20
               21              22              23              24              25
 ................................................................................................................................................................
   1  3.928349470     3.944186585     3.942180940     3.931956655     3.930612389     3.930365894     3.930383879     3.930342596     3.930351116     3.930367176    
      3.930372314     3.930373094     3.930372731     3.930372579     3.930372546     3.930372537     3.930372520     3.930372533     3.930372530     3.930372533    
      3.930372543     3.930372558     3.930372575     3.930372598     3.930372611    
1
  CONCENTRATION IN LAYER   8 AT END OF TIME STEP   3 IN STRESS PERIOD    1
  ---------------------------------------------------------------------------

                1               2               3               4               5               6               7               8               9              10
               11              12              13              14              15              16              17              18              19              20
               21              22              23              24              25
 ................................................................................................................................................................
   1  3.928349470     3.935077116     3.939111892     3.931681001     3.930590621     3.930367587     3.930384612     3.930343649     3.930353724     3.930367753    
      3.930372342     3.930373130     3.930372740     3.930372583     3.930372550     3.930372544     3.930372525     3.930372540     3.930372536     3.930372537    
      3.930372548     3.930372562     3.930372578     3.930372599     3.930372611    
1
  CONCENTRATION IN LAYER   9 AT END OF TIME STEP   3 IN STRESS PERIOD    1
  ---------------------------------------------------------------------------

                1               2               3               4               5               6               7               8               9              10
               11              12              13              14              15              16              17              18              19              20
               21              22              23              24              25
 ................................................................................................................................................................
   1  3.928349470     3.931378303     3.936833729     3.931452203     3.930566397     3.930370918     3.930379791     3.930345834     3.930356788     3.930368225    
      3.930372370     3.930373192     3.930372752     3.930372587     3.930372557     3.930372552     3.930372536     3.930372547     3.930372545     3.930372545    
      3.930372555     3.930372567     3.930372581     3.930372600     3.930372611    
1
  CONCENTRATION IN LAYER  10 AT END OF TIME STEP   3 IN STRESS PERIOD    1
  ---------------------------------------------------------------------------

                1               2               3               4               5               6               7               8               9              10
               11              12              13              14              15              16              17              18              19              20
               21              22              23              24              25
 ................................................................................................................................................................
   1  3.928349470     3.930445237     3.935073974     3.931567759     3.930563801     3.930373866     3.930373737     3.930347968     3.930359100     3.930368386    
      3.930372420     3.930373248     3.930372763     3.930372594     3.930372567     3.930372563     3.930372549     3.930372557     3.930372556     3.930372555    
      3.930372563     3.930372574     3.930372586     3.930372601     3.930372611    

 CONCENTRATION WILL BE SAVED ON UNIT 2007 AT END OF TIME STEP    3, STRESS PERIOD    1


  MASS BUDGET FOR ENTIRE MODEL AT END OF TIME STEP    3, STRESS PERIOD   1
  ---------------------------------------------------------------------------------------------------

     CUMULATIVE MASS      M       RATES FOR THIS TIME STEP      M/T          PACKAGE NAME    
     ------------------                 ------------------------                     ----------------

           IN:                                      IN:
           ---                                      ---
     STORAGE-AQUEOUS =           6.6904       STORAGE-AQUEOUS =           0.2786     MST                              
                 CHD =           0.9198                   CHD =       3.0659E-02     SSM_CHD                          
                 CNC =          17.6602                   CNC =           0.5703     CNC                              

            TOTAL IN =          25.2703              TOTAL IN =           0.8796

          OUT:                                     OUT:
          ----                                     ----
     STORAGE-AQUEOUS =           0.3941       STORAGE-AQUEOUS =       2.9537E-02     MST                              
                 CHD =          24.5643                   CHD =           0.8188     SSM_CHD                          
                 CNC =           0.3120                   CNC =       3.1197E-02     CNC                              

           TOTAL OUT =          25.2703             TOTAL OUT =           0.8796

            IN - OUT =      -3.5299E-10              IN - OUT =       1.0077E-10

 PERCENT DISCREPANCY =          -0.00     PERCENT DISCREPANCY =           0.00




         TIME SUMMARY AT END OF TIME STEP    3 IN STRESS PERIOD    1
                    SECONDS     MINUTES      HOURS       DAYS        YEARS
                    -----------------------------------------------------------
   TIME STEP LENGTH 8.64000E+05  14400.      240.00      10.000     2.73785E-02
 STRESS PERIOD TIME 2.59200E+06  43200.      720.00      30.000     8.21355E-02
         TOTAL TIME 2.59200E+06  43200.      720.00      30.000     8.21355E-02


end timestep


start timestep kper="1" kstp="4" mode="normal"

 UBDSV06 SAVING  SOURCE-SINK MIX IN MODEL C                PACKAGE C               CONNECTED TO MODEL C                PACKAGE SSM              ON UNIT   2006 AT TIME STEP      4, STRESS PERIOD      1
 UBDSV06 SAVING              CNC IN MODEL C                PACKAGE C               CONNECTED TO MODEL C                PACKAGE CNC              ON UNIT   2006 AT TIME STEP      4, STRESS PERIOD      1

 SSM PACKAGE (SSM) FLOW RATES   PERIOD      1   STEP        4
 ------------------------------------------------------------------------------------------------
   NUMBER   CELLID                   BOUND Q        SSM CONC          RATE         PACKAGE NAME  
 ------------------------------------------------------------------------------------------------
     1      (1,1,1)               2.08333321E-02  0.49054516      1.02196902E-02       CHD       
     2      (2,1,1)               2.08333321E-02  0.49054516      1.02196902E-02       CHD       
     3      (3,1,1)               2.08333321E-02  0.49054516      1.02196902E-02       CHD       
     4      (4,1,1)               0.0000000       0.0000000       0.0000000            CHD       
     5      (5,1,1)               0.0000000       0.0000000       0.0000000            CHD       
     6      (6,1,1)               0.0000000       0.0000000       0.0000000            CHD       
     7      (7,1,1)               0.0000000       0.0000000       0.0000000            CHD       
     8      (8,1,1)               0.0000000       0.0000000       0.0000000            CHD       
     9      (9,1,1)               0.0000000       0.0000000       0.0000000            CHD       
     10     (10,1,1)              0.0000000       0.0000000       0.0000000            CHD       
     11     (1,1,25)             -2.08333356E-02  3.9303726      -8.18827717E-02       CHD       
     12     (2,1,25)             -2.08333356E-02  3.9303726      -8.18827717E-02       CHD       
     13     (3,1,25)             -2.08333356E-02  3.9303726      -8.18827717E-02       CHD       
     14     (4,1,25)             -2.08333356E-02  3.9303726      -8.18827717E-02       CHD       
     15     (5,1,25)             -2.08333356E-02  3.9303726      -8.18827717E-02       CHD       
     16     (6,1,25)             -2.08333356E-02  3.9303726      -8.18827717E-02       CHD       
     17     (7,1,25)             -2.08333356E-02  3.9303726      -8.18827717E-02       CHD       
     18     (8,1,25)             -2.08333356E-02  3.9303726      -8.18827717E-02       CHD       
     19     (9,1,25)             -2.08333356E-02  3.9303726      -8.18827717E-02       CHD       
     20     (10,1,25)            -2.08333356E-02  3.9303726      -8.18827717E-02       CHD       
 ------------------------------------------------------------------------------------------------




 CNC PACKAGE (CNC) FLOW RATES   PERIOD      1   STEP        4
 -----------------------------------------------
   NUMBER   CELLID                    RATE      
 -----------------------------------------------
     1      (4,1,1)               2.70266526E-02
     2      (5,1,1)               8.06122364E-02
     3      (6,1,1)               8.11823228E-02
     4      (7,1,1)               8.15006100E-02
     5      (8,1,1)               8.16676488E-02
     6      (9,1,1)               8.17491733E-02
     7      (10,1,1)              8.17805912E-02
 -----------------------------------------------



1
  CONCENTRATION IN LAYER   1 AT END OF TIME STEP   4 IN STRESS PERIOD    1
  ---------------------------------------------------------------------------

                1               2               3               4               5               6               7               8               9              10
               11              12              13              14              15              16              17              18              19              20
               21              22              23              24              25
 ................................................................................................................................................................
   1  5.616355868     4.668785494     3.908086789     3.918852059     3.928596954     3.930177230     3.930342578     3.930347704     3.930348978     3.930358782    
      3.930368230     3.930372728     3.930373154     3.930372719     3.930372583     3.930372563     3.930372561     3.930372560     3.930372561     3.930372564    
      3.930372568     3.930372578     3.930372588     3.930372604     3.930372611    
1
  CONCENTRATION IN LAYER   2 AT END OF TIME STEP   4 IN STRESS PERIOD    1
  ---------------------------------------------------------------------------

                1               2               3               4               5               6               7               8               9              10
               11              12              13              14              15              16              17              18              19              20
               21              22              23              24              25
 ................................................................................................................................................................
   1  5.368949549     4.581249753     3.906589461     3.919849978     3.928787965     3.930196540     3.930345408     3.930352527     3.930346353     3.930356848    
      3.930368125     3.930372700     3.930373150     3.930372715     3.930372576     3.930372555     3.930372553     3.930372552     3.930372553     3.930372558    
      3.930372562     3.930372574     3.930372585     3.930372603     3.930372611    
1
  CONCENTRATION IN LAYER   3 AT END OF TIME STEP   4 IN STRESS PERIOD    1
  ---------------------------------------------------------------------------

                1               2               3               4               5               6               7               8               9              10
               11              12              13              14              15              16              17              18              19              20
               21              22              23              24              25
 ................................................................................................................................................................
   1  4.850970557     4.413031481     3.911682574     3.922519271     3.929165081     3.930230901     3.930351289     3.930359946     3.930341717     3.930354187    
      3.930368027     3.930372664     3.930373140     3.930372708     3.930372565     3.930372543     3.930372540     3.930372540     3.930372541     3.930372547    
      3.930372554     3.930372567     3.930372580     3.930372601     3.930372611    
1
  CONCENTRATION IN LAYER   4 AT END OF TIME STEP   4 IN STRESS PERIOD    1
  ---------------------------------------------------------------------------

                1               2               3               4               5               6               7               8               9              10
               11              12              13              14              15              16              17              18              19              20
               21              22              23              24              25
 ................................................................................................................................................................
   1  3.928349470     4.177434404     3.954098657     3.927526727     3.929658655     3.930272535     3.930359875     3.930366917     3.930336531     3.930352031    
      3.930368037     3.930372647     3.930373129     3.930372701     3.930372555     3.930372531     3.930372528     3.930372529     3.930372530     3.930372536    
      3.930372545     3.930372561     3.930372574     3.930372598     3.930372611    
1
  CONCENTRATION IN LAYER   5 AT END OF TIME STEP   4 IN STRESS PERIOD    1
  ---------------------------------------------------------------------------

                1               2               3               4               5               6               7               8               9              10
               11              12              13              14              15              16              17              18              19              20
               21              22              23              24              25
 ................................................................................................................................................................
   1  3.928349470     4.054580849     3.959926907     3.931049946     3.930124150     3.930314452     3.930369504     3.930371700     3.930332531     3.930351023    
      3.930368178     3.930372659     3.930373119     3.930372695     3.930372550     3.930372525     3.930372517     3.930372522     3.930372523     3.930372529    
      3.930372539     3.930372555     3.930372571     3.930372597     3.930372610    
1
  CONCENTRATION IN LAYER   6 AT END OF TIME STEP   4 IN STRESS PERIOD    1
  ---------------------------------------------------------------------------

                1               2               3               4               5               6               7               8               9              10
               11              12              13              14              15              16              17              18              19              20
               21              22              23              24              25
 ................................................................................................................................................................
   1  3.928349470     3.991072666     3.955157261     3.932717871     3.930455036     3.930349551     3.930378270     3.930373658     3.930330912     3.930351357    
      3.930368388     3.930372691     3.930373113     3.930372691     3.930372549     3.930372523     3.930372512     3.930372520     3.930372520     3.930372525    
      3.930372537     3.930372552     3.930372570     3.930372595     3.930372609    
1
  CONCENTRATION IN LAYER   7 AT END OF TIME STEP   4 IN STRESS PERIOD    1
  ---------------------------------------------------------------------------

                1               2               3               4               5               6               7               8               9              10
               11              12              13              14              15              16              17              18              19              20
               21              22              23              24              25
 ................................................................................................................................................................
   1  3.928349470     3.957991440     3.949706627     3.933133362     3.930633943     3.930374581     3.930384759     3.930372929     3.930332091     3.930352681    
      3.930368668     3.930372736     3.930373112     3.930372691     3.930372550     3.930372525     3.930372512     3.930372523     3.930372522     3.930372526    
      3.930372537     3.930372553     3.930372570     3.930372595     3.930372609    
1
  CONCENTRATION IN LAYER   8 AT END OF TIME STEP   4 IN STRESS PERIOD    1
  ---------------------------------------------------------------------------

                1               2               3               4               5               6               7               8               9              10
               11              12              13              14              15              16              17              18              19              20
               21              22              23              24              25
 ................................................................................................................................................................
   1  3.928349470     3.942018804     3.944732704     3.932891407     3.930706279     3.930390503     3.930388238     3.930370182     3.930335606     3.930354547    
      3.930368960     3.930372788     3.930373118     3.930372694     3.930372553     3.930372530     3.930372517     3.930372528     3.930372527     3.930372530    
      3.930372541     3.930372555     3.930372572     3.930372595     3.930372609    
1
  CONCENTRATION IN LAYER   9 AT END OF TIME STEP   4 IN STRESS PERIOD    1
  ---------------------------------------------------------------------------

                1               2               3               4               5               6               7               8               9              10
               11              12              13              14              15              16              17              18              19              20
               21              22              23              24              25
 ................................................................................................................................................................
   1  3.928349470     3.935142519     3.940524416     3.932850106     3.930745921     3.930400203     3.930388902     3.930366493     3.930340182     3.930356455    
      3.930369200     3.930372846     3.930373131     3.930372699     3.930372557     3.930372537     3.930372527     3.930372535     3.930372535     3.930372537    
      3.930372546     3.930372560     3.930372575     3.930372596     3.930372609    
1
  CONCENTRATION IN LAYER  10 AT END OF TIME STEP   4 IN STRESS PERIOD    1
  ---------------------------------------------------------------------------

                1               2               3               4               5               6               7               8               9              10
               11              12              13              14              15              16              17              18              19              20
               21              22              23              24              25
 ................................................................................................................................................................
   1  3.928349470     3.932951665     3.937658669     3.933121580     3.930784061     3.930405032     3.930388603     3.930363237     3.930343695     3.930357819    
      3.930369336     3.930372897     3.930373147     3.930372707     3.930372561     3.930372545     3.930372538     3.930372544     3.930372543     3.930372544    
      3.930372553     3.930372565     3.930372579     3.930372597     3.930372609    

 CONCENTRATION WILL BE SAVED ON UNIT 2007 AT END OF TIME STEP    4, STRESS PERIOD    1


  MASS BUDGET FOR ENTIRE MODEL AT END OF TIME STEP    4, STRESS PERIOD   1
  ---------------------------------------------------------------------------------------------------

     CUMULATIVE MASS      M       RATES FOR THIS TIME STEP      M/T          PACKAGE NAME    
     ------------------                 ------------------------                     ----------------

           IN:                                      IN:
           ---                                      ---
     STORAGE-AQUEOUS =           9.9187       STORAGE-AQUEOUS =           0.3228     MST                              
                 CHD =           1.2264                   CHD =       3.0659E-02     SSM_CHD                          
                 CNC =          23.3415                   CNC =           0.5681     CNC                              

            TOTAL IN =          34.4866              TOTAL IN =           0.9216

          OUT:                                     OUT:
          ----                                     ----
     STORAGE-AQUEOUS =           0.8959       STORAGE-AQUEOUS =       5.0181E-02     MST                              
                 CHD =          32.7525                   CHD =           0.8188     SSM_CHD                          
                 CNC =           0.8381                   CNC =       5.2617E-02     CNC                              

           TOTAL OUT =          34.4866             TOTAL OUT =           0.9216

            IN - OUT =       3.9975E-10              IN - OUT =       7.5274E-11

 PERCENT DISCREPANCY =           0.00     PERCENT DISCREPANCY =           0.00




         TIME SUMMARY AT END OF TIME STEP    4 IN STRESS PERIOD    1
                    SECONDS     MINUTES      HOURS       DAYS        YEARS
                    -----------------------------------------------------------
   TIME STEP LENGTH 8.64000E+05  14400.      240.00      10.000     2.73785E-02
 STRESS PERIOD TIME 3.45600E+06  57600.      960.00      40.000     0.10951    
         TOTAL TIME 3.45600E+06  57600.      960.00      40.000     0.10951    


end timestep


start timestep kper="1" kstp="5" mode="normal"

 UBDSV06 SAVING  SOURCE-SINK MIX IN MODEL C                PACKAGE C               CONNECTED TO MODEL C                PACKAGE SSM              ON UNIT   2006 AT TIME STEP      5, STRESS PERIOD      1
 UBDSV06 SAVING              CNC IN MODEL C                PACKAGE C               CONNECTED TO MODEL C                PACKAGE CNC              ON UNIT   2006 AT TIME STEP      5, STRESS PERIOD      1

 SSM PACKAGE (SSM) FLOW RATES   PERIOD      1   STEP        5
 ------------------------------------------------------------------------------------------------
   NUMBER   CELLID                   BOUND Q        SSM CONC          RATE         PACKAGE NAME  
 ------------------------------------------------------------------------------------------------
     1      (1,1,1)               2.08333321E-02  0.49054516      1.02196902E-02       CHD       
     2      (2,1,1)               2.08333321E-02  0.49054516      1.02196902E-02       CHD       
     3      (3,1,1)               2.08333321E-02  0.49054516      1.02196902E-02       CHD       
     4      (4,1,1)               0.0000000       0.0000000       0.0000000            CHD       
     5      (5,1,1)               0.0000000       0.0000000       0.0000000            CHD       
     6      (6,1,1)               0.0000000       0.0000000       0.0000000            CHD       
     7      (7,1,1)               0.0000000       0.0000000       0.0000000            CHD       
     8      (8,1,1)               0.0000000       0.0000000       0.0000000            CHD       
     9      (9,1,1)               0.0000000       0.0000000       0.0000000            CHD       
     10     (10,1,1)              0.0000000       0.0000000       0.0000000            CHD       
     11     (1,1,25)             -2.08333353E-02  3.9303726      -8.18827705E-02       CHD       
     12     (2,1,25)             -2.08333353E-02  3.9303726      -8.18827705E-02       CHD       
[...]
               21              22              23              24              25
 ................................................................................................................................................................
   1  3.928349470     3.922885164     3.815545787     3.840395914     3.998431044     4.190494478     4.375460818     4.519770821     4.618027014     4.683654353    
      4.733063873     4.778647276     4.826274216     4.870649020     4.913043785     4.934464201     4.963103592     4.985412269     4.994524474     4.993954362    
      4.969369389     4.929072651     4.875323178     4.811112957     4.743932424    

 CONCENTRATION WILL BE SAVED ON UNIT 2007 AT END OF TIME STEP  199, STRESS PERIOD    1


  MASS BUDGET FOR ENTIRE MODEL AT END OF TIME STEP  199, STRESS PERIOD   1
  ---------------------------------------------------------------------------------------------------

     CUMULATIVE MASS      M       RATES FOR THIS TIME STEP      M/T          PACKAGE NAME    
     ------------------                 ------------------------                     ----------------

           IN:                                      IN:
           ---                                      ---
     STORAGE-AQUEOUS =        1256.9038       STORAGE-AQUEOUS =           0.5890     MST                              
                 CHD =          61.0116                   CHD =       3.0659E-02     SSM_CHD                          
                 CNC =        1328.4946                   CNC =           0.7204     CNC                              

            TOTAL IN =        2646.4100              TOTAL IN =           1.3401

          OUT:                                     OUT:
          ----                                     ----
     STORAGE-AQUEOUS =         950.1604       STORAGE-AQUEOUS =           0.3518     MST                              
                 CHD =        1682.2398                   CHD =           0.9883     SSM_CHD                          
                 CNC =          14.0097                   CNC =           0.0000     CNC                              

           TOTAL OUT =        2646.4100             TOTAL OUT =           1.3401

            IN - OUT =      -7.7619E-08              IN - OUT =       1.2051E-09

 PERCENT DISCREPANCY =          -0.00     PERCENT DISCREPANCY =           0.00




         TIME SUMMARY AT END OF TIME STEP  199 IN STRESS PERIOD    1
                    SECONDS     MINUTES      HOURS       DAYS        YEARS
                    -----------------------------------------------------------
   TIME STEP LENGTH 8.64000E+05  14400.      240.00      10.000     2.73785E-02
 STRESS PERIOD TIME 1.71936E+08 2.86560E+06  47760.      1990.0      5.4483    
         TOTAL TIME 1.71936E+08 2.86560E+06  47760.      1990.0      5.4483    


end timestep


start timestep kper="1" kstp="200" mode="normal"

 UBDSV06 SAVING  SOURCE-SINK MIX IN MODEL C                PACKAGE C               CONNECTED TO MODEL C                PACKAGE SSM              ON UNIT   2006 AT TIME STEP    200, STRESS PERIOD      1
 UBDSV06 SAVING              CNC IN MODEL C                PACKAGE C               CONNECTED TO MODEL C                PACKAGE CNC              ON UNIT   2006 AT TIME STEP    200, STRESS PERIOD      1

 SSM PACKAGE (SSM) FLOW RATES   PERIOD      1   STEP      200
 ------------------------------------------------------------------------------------------------
   NUMBER   CELLID                   BOUND Q        SSM CONC          RATE         PACKAGE NAME  
 ------------------------------------------------------------------------------------------------
     1      (1,1,1)               2.08333330E-02  0.49054516      1.02196907E-02       CHD       
     2      (2,1,1)               2.08333330E-02  0.49054516      1.02196907E-02       CHD       
     3      (3,1,1)               2.08333330E-02  0.49054516      1.02196907E-02       CHD       
     4      (4,1,1)               0.0000000       0.0000000       0.0000000            CHD       
     5      (5,1,1)               0.0000000       0.0000000       0.0000000            CHD       
     6      (6,1,1)               0.0000000       0.0000000       0.0000000            CHD       
     7      (7,1,1)               0.0000000       0.0000000       0.0000000            CHD       
     8      (8,1,1)               0.0000000       0.0000000       0.0000000            CHD       
     9      (9,1,1)               0.0000000       0.0000000       0.0000000            CHD       
     10     (10,1,1)              0.0000000       0.0000000       0.0000000            CHD       
     11     (1,1,25)             -2.08333337E-02  4.7550549      -9.90636450E-02       CHD       
     12     (2,1,25)             -2.08333337E-02  4.7550550      -9.90636473E-02       CHD       
     13     (3,1,25)             -2.08333337E-02  4.7550552      -9.90636508E-02       CHD       
     14     (4,1,25)             -2.08333337E-02  4.7550554      -9.90636553E-02       CHD       
     15     (5,1,25)             -2.08333337E-02  4.7550556      -9.90636603E-02       CHD       
     16     (6,1,25)             -2.08333337E-02  4.7550559      -9.90636655E-02       CHD       
     17     (7,1,25)             -2.08333337E-02  4.7550561      -9.90636705E-02       CHD       
     18     (8,1,25)             -2.08333337E-02  4.7550563      -9.90636750E-02       CHD       
     19     (9,1,25)             -2.08333337E-02  4.7550565      -9.90636790E-02       CHD       
     20     (10,1,25)            -2.08333337E-02  4.7550567      -9.90636823E-02       CHD       
 ------------------------------------------------------------------------------------------------




 CNC PACKAGE (CNC) FLOW RATES   PERIOD      1   STEP      200
 -----------------------------------------------
   NUMBER   CELLID                    RATE      
 -----------------------------------------------
     1      (4,1,1)               0.21312276    
     2      (5,1,1)               8.92551133E-02
     3      (6,1,1)               8.73704816E-02
     4      (7,1,1)               8.36643144E-02
     5      (8,1,1)               8.24469802E-02
     6      (9,1,1)               8.21563846E-02
     7      (10,1,1)              8.20694060E-02
 -----------------------------------------------



1
  CONCENTRATION IN LAYER   1 AT END OF TIME STEP 200 IN STRESS PERIOD    1
  ---------------------------------------------------------------------------

                1               2               3               4               5               6               7               8               9              10
               11              12              13              14              15              16              17              18              19              20
               21              22              23              24              25
 ................................................................................................................................................................
   1  2.742151662     3.544373190     3.113990661     3.188901054     4.573369652     4.737782440     4.681176639     4.672079993     4.695128729     4.720458728    
      4.755641435     4.786738487     4.823862728     4.865761199     4.908169104     4.930880399     4.959391591     4.982308818     4.992393382     4.994723166    
      4.972336192     4.934453184     4.882926957     4.820647621     4.755054886    
1
  CONCENTRATION IN LAYER   2 AT END OF TIME STEP 200 IN STRESS PERIOD    1
  ---------------------------------------------------------------------------

                1               2               3               4               5               6               7               8               9              10
               11              12              13              14              15              16              17              18              19              20
               21              22              23              24              25
 ................................................................................................................................................................
   1  2.929607648     3.441999474     3.099872505     3.294066991     4.498321058     4.683397648     4.656453895     4.662615501     4.690694627     4.718888423    
      4.753631519     4.785997105     4.823653825     4.865694202     4.908144421     4.930824874     4.959325612     4.982273074     4.992376668     4.994720249    
      4.972335027     4.934453192     4.882927195     4.820647805     4.755054994    
1
  CONCENTRATION IN LAYER   3 AT END OF TIME STEP 200 IN STRESS PERIOD    1
  ---------------------------------------------------------------------------

                1               2               3               4               5               6               7               8               9              10
               11              12              13              14              15              16              17              18              19              20
               21              22              23              24              25
 ................................................................................................................................................................
   1  3.486772459     3.276516625     3.073835095     3.478488123     4.390015636     4.589485405     4.613148232     4.645053418     4.682510986     4.715517333    
      4.750135713     4.784644530     4.823240432     4.865557744     4.908094619     4.930718078     4.959199718     4.982205114     4.992345005     4.994714622    
      4.972332826     4.934453204     4.882927685     4.820648114     4.755055165    
1
  CONCENTRATION IN LAYER   4 AT END OF TIME STEP 200 IN STRESS PERIOD    1
  ---------------------------------------------------------------------------

                1               2               3               4               5               6               7               8               9              10
               11              12              13              14              15              16              17              18              19              20
               21              22              23              24              25
 ................................................................................................................................................................
   1  3.928349470     3.125659878     3.057824198     4.205671582     4.293407907     4.481256064     4.562522001     4.621932096     4.671730779     4.709666043    
      4.746228003     4.782913162     4.822649588     4.865354143     4.908020107     4.930568494     4.959025586     4.982111631     4.992301687     4.994706749    
      4.972329807     4.934453228     4.882928368     4.820648538     4.755055378    
1
  CONCENTRATION IN LAYER   5 AT END OF TIME STEP 200 IN STRESS PERIOD    1
  ---------------------------------------------------------------------------

                1               2               3               4               5               6               7               8               9              10
               11              12              13              14              15              16              17              18              19              20
               21              22              23              24              25
 ................................................................................................................................................................
   1  3.928349470     3.061354369     3.114969210     4.183548068     4.217795993     4.387878216     4.510194052     4.596347258     4.658101191     4.702951624    
      4.742233142     4.780980717     4.821946047     4.865099245     4.907923913     4.930388641     4.958819582     4.982001828     4.992251116     4.994697352    
      4.972326260     4.934453268     4.882929176     4.820649040     4.755055618    
1
  CONCENTRATION IN LAYER   6 AT END OF TIME STEP 200 IN STRESS PERIOD    1
  ---------------------------------------------------------------------------

                1               2               3               4               5               6               7               8               9              10
               11              12              13              14              15              16              17              18              19              20
               21              22              23              24              25
 ................................................................................................................................................................
   1  3.928349470     3.191395315     3.250446703     4.088093205     4.153844692     4.316092295     4.463289393     4.570670613     4.644302209     4.695815482    
      4.738153305     4.779008994     4.821235340     4.864825362     4.907812716     4.930194493     4.958601403     4.981886492     4.992198323     4.994687344    
      4.972322524     4.934453321     4.882930030     4.820649570     4.755055867    
1
  CONCENTRATION IN LAYER   7 AT END OF TIME STEP 200 IN STRESS PERIOD    1
  ---------------------------------------------------------------------------

                1               2               3               4               5               6               7               8               9              10
               11              12              13              14              15              16              17              18              19              20
               21              22              23              24              25
 ................................................................................................................................................................
   1  3.928349470     4.040383772     4.070594772     3.984856684     4.095264666     4.262038331     4.424281183     4.547442415     4.631451021     4.689025746    
      4.734265452     4.777039442     4.820721291     4.864579078     4.907696436     4.930004463     4.958392344     4.981776919     4.992148466     4.994677717    
      4.972318965     4.934453383     4.882930845     4.820650073     4.755056109    
1
  CONCENTRATION IN LAYER   8 AT END OF TIME STEP 200 IN STRESS PERIOD    1
  ---------------------------------------------------------------------------

                1               2               3               4               5               6               7               8               9              10
               11              12              13              14              15              16              17              18              19              20
               21              22              23              24              25
 ................................................................................................................................................................
   1  3.928349470     3.984597758     3.764353371     3.912749716     4.049222460     4.222833590     4.394308709     4.528491858     4.620692348     4.683260030    
      4.731025657     4.775151208     4.820448908     4.864390951     4.907588762     4.929838264     4.958213267     4.981683804     4.992106341     4.994669426    
      4.972315938     4.934453445     4.882931543     4.820650495     4.755056328    
1
  CONCENTRATION IN LAYER   9 AT END OF TIME STEP 200 IN STRESS PERIOD    1
  ---------------------------------------------------------------------------

                1               2               3               4               5               6               7               8               9              10
               11              12              13              14              15              16              17              18              19              20
               21              22              23              24              25
 ................................................................................................................................................................
   1  3.928349470     3.933362953     3.802943214     3.870340524     4.017625746     4.196925415     4.374033092     4.515127715     4.612964568     4.679080349    
      4.728695815     4.773699276     4.820317231     4.864263715     4.907505124     4.929714774     4.958082441     4.981616197     4.992075932     4.994663310    
      4.972313745     4.934453500     4.882932055     4.820650786     4.755056516    
1
  CONCENTRATION IN LAYER  10 AT END OF TIME STEP 200 IN STRESS PERIOD    1
  ---------------------------------------------------------------------------

                1               2               3               4               5               6               7               8               9              10
               11              12              13              14              15              16              17              18              19              20
               21              22              23              24              25
 ................................................................................................................................................................
   1  3.928349470     3.928546391     3.819644417     3.850697123     4.001897406     4.183984268     4.363818956     4.508227023     4.608929998     4.676886628    
      4.727477260     4.772915280     4.820267187     4.864198231     4.907459089     4.929648911     4.958013427     4.981580663     4.992060045     4.994660023    
      4.972312603     4.934453537     4.882932331     4.820650904     4.755056675    

 CONCENTRATION WILL BE SAVED ON UNIT 2007 AT END OF TIME STEP  200, STRESS PERIOD    1


  MASS BUDGET FOR ENTIRE MODEL AT END OF TIME STEP  200, STRESS PERIOD   1
  ---------------------------------------------------------------------------------------------------

     CUMULATIVE MASS      M       RATES FOR THIS TIME STEP      M/T          PACKAGE NAME    
     ------------------                 ------------------------                     ----------------

           IN:                                      IN:
           ---                                      ---
     STORAGE-AQUEOUS =        1262.5706       STORAGE-AQUEOUS =           0.5667     MST                              
                 CHD =          61.3181                   CHD =       3.0659E-02     SSM_CHD                          
                 CNC =        1335.6954                   CNC =           0.7201     CNC                              

            TOTAL IN =        2659.5842              TOTAL IN =           1.3174

          OUT:                                     OUT:
          ----                                     ----
     STORAGE-AQUEOUS =         953.4284       STORAGE-AQUEOUS =           0.3268     MST                              
                 CHD =        1692.1461                   CHD =           0.9906     SSM_CHD                          
                 CNC =          14.0097                   CNC =           0.0000     CNC                              

           TOTAL OUT =        2659.5842             TOTAL OUT =           1.3174

            IN - OUT =      -6.6327E-08              IN - OUT =       1.1292E-09

 PERCENT DISCREPANCY =          -0.00     PERCENT DISCREPANCY =           0.00




         TIME SUMMARY AT END OF TIME STEP  200 IN STRESS PERIOD    1
                    SECONDS     MINUTES      HOURS       DAYS        YEARS
                    -----------------------------------------------------------
   TIME STEP LENGTH 8.64000E+05  14400.      240.00      10.000     2.73785E-02
 STRESS PERIOD TIME 1.72800E+08 2.88000E+06  48000.      2000.0      5.4757    
         TOTAL TIME 1.72800E+08 2.88000E+06  48000.      2000.0      5.4757    


end timestep

