                                   MODFLOW 6
                U.S. GEOLOGICAL SURVEY MODULAR HYDROLOGIC MODEL
                       GROUNDWATER TRANSPORT MODEL (GWT)
                VERSION 6.5.0.dev0+prt (preliminary) 10/07/2023
                               ***DEVELOP MODE***

   MODFLOW 6 compiled Oct 07 2023 02:19:02 with Intel(R) Fortran Intel(R) 64
   Compiler Classic for applications running on Intel(R) 64, Version 2021.7.0
                             Build 20220726_000000

This software is preliminary or provisional and is subject to 
revision. It is being provided to meet the need for timely best 
science. The software has not received final approval by the U.S. 
Geological Survey (USGS). No warranty, expressed or implied, is made 
by the USGS or the U.S. Government as to the functionality of the 
software and related material nor shall the fact of release 
constitute any such warranty. The software is provided on the 
condition that neither the USGS nor the U.S. Government shall be held 
liable for any damages resulting from the authorized or unauthorized 
use of the software.


As a work of the United States Government, this USGS product is 
in the public domain within the United States. You can copy, 
modify, distribute, and perform the work, even for commercial 
purposes, all without asking permission. Additionally, USGS 
waives copyright and related rights in the work worldwide 
through CC0 1.0 Universal Public Domain Dedication 
(https://creativecommons.org/publicdomain/zero/1.0/).

The following GNU Lesser General Public License (LGPL) libraries
are used in this USGS product:

    SPARSKIT version 2.0
      ilut, luson, and qsplit 
      (https://www-users.cse.umn.edu/~saad/software/SPARSKIT/)

    RCM - Reverse Cuthill McKee Ordering
      (https://people.math.sc.edu/Burkardt/f_src/rcm/rcm.html)

    BLAS - Basic Linear Algebra Subprograms Level 1
      (https://people.math.sc.edu/Burkardt/f_src/blas1_d/blas1_d.html)

    SPARSEKIT - Sparse Matrix Utility Package
      amux, dperm, dvperm, rperm, and cperm
      (https://people.sc.fsu.edu/~jburkardt/f77_src/sparsekit/sparsekit.html)

The following BSD-3 License libraries are used in this USGS product:

    Modern Fortran DAG Library
      Copyright (c) 2018, Jacob Williams
      All rights reserved.
      (https://github.com/jacobwilliams/daglib)

MODFLOW 6 compiler options: /Isrc\libmf6core.a.p /Isrc /I..\src
/Isrc\libmf6_external.a.p /MTd /nologo /warn:general /warn:truncated_source
/stand:f08 /Zi /traceback /O2 /fpe:0 /heap-arrays:0 /traceback /fpp
/Qdiag-disable:7416 /Qdiag-disable:7025 /Qdiag-disable:5268
/Fdsrc\libmf6core.a.p\Utilities_compilerversion.F90.pdb
/module:src\libmf6core.a.p
/Fosrc/libmf6core.a.p/Utilities_compilerversion.F90.obj /c

System command used to initiate simulation:
c:\Users\portega\anaconda3\envs\mf6rtm\python.exe -m ipykernel_launcher --f=c:\Users\portega\AppData\Roaming\jupyter\runtime\kernel-v2-17404iCBvKc1FbHvz.json

MODFLOW was compiled using uniform precision.

Real Variables
  KIND: 8
  TINY (smallest non-zero value):    2.225074-308
  HUGE (largest value):    1.797693+308
  PRECISION: 15
  SIZE IN BITS: 64

Integer Variables
  KIND: 4
  HUGE (largest value): 2147483647
  SIZE IN BITS: 32

Long Integer Variables
  KIND: 8
  HUGE (largest value): 9223372036854775807
  SIZE IN BITS: 64

Logical Variables
  KIND: 4
  SIZE IN BITS: 32
 
 NAMEFILE OPTIONS:
 END NAMEFILE OPTIONS:

 DIS -- STRUCTURED GRID DISCRETIZATION PACKAGE, VERSION 2 : 3/27/2014 - INPUT READ FROM MEMPATH: __INPUT__/C/DIS                                   


 DSP-- DISPERSION PACKAGE, VERSION 1, 1/24/2018 INPUT READ FROM MEMPATH: __INPUT__/C/DSP                                   


 Setting Discretization Options
    Model length unit [0=UND, 1=FEET, 2=METERS, 3=CENTIMETERS] set as 2
 End Setting Discretization Options

 Setting Discretization Dimensions
    NLAY = 10
    NROW = 1
    NCOL = 25
 End Setting Discretization Dimensions

 Setting Discretization Griddata
    DELR set from input file
    DELC set from input file
    TOP set from input file
    BOTM set from input file
    IDOMAIN set from input file
 End Setting Discretization Griddata


 FMI -- FLOW MODEL INTERFACE,' VERSION 2, 8/17/2023
  FLOWS PROVIDED BY A GWF MODEL IN THIS SIMULATION

 ADV-- ADVECTION PACKAGE, VERSION 1, 8/25/2017 INPUT READ FROM UNIT 5902


 # File generated by Flopy version 3.5.0.dev0 on 07/12/2024 at 09:44:05.
 PROCESSING ADVECTION OPTIONS
    ADVECTION WEIGHTING SCHEME HAS BEEN SET TO: TVD
 END OF ADVECTION OPTIONS
 Setting DSP Options
    XT3D formulation [0=INACTIVE, 1=ACTIVE, 3=ACTIVE RHS] set to: 0
 End Setting DSP Options

 Setting DSP Griddata
    ALH set from input file
    ATH1 set from input file
    ATV set from input file
 End Setting DSP Griddata


 CNC   -- CNC PACKAGE, VERSION 8, 2/22/2014 INPUT READ FROM UNIT 5936
 # File generated by Flopy version 3.5.0.dev0 on 07/12/2024 at 09:44:05.

 PROCESSING CNC OPTIONS
    CNC FLOWS WILL BE PRINTED TO LISTING FILE.
    FLOWS WILL BE SAVED TO BUDGET FILE SPECIFIED IN OUTPUT CONTROL
 END OF CNC OPTIONS

 PROCESSING CNC DIMENSIONS
    MAXBOUND =       7
 END OF CNC DIMENSIONS

 IC -- INITIAL CONDITIONS PACKAGE, VERSION 8, 3/28/2015 INPUT READ FROM UNIT 5900
 # File generated by Flopy version 3.5.0.dev0 on 07/12/2024 at 09:44:05.
 PROCESSING GRIDDATA

 OPENED C.ic_strt_layer1.txt
 FILE TYPE:OPEN/CLOSE   UNIT 6586   STATUS:OLD                 
 FORMAT:FORMATTED              ACCESS:SEQUENTIAL          
 ACTION:READ                


 OPENED C.ic_strt_layer2.txt
 FILE TYPE:OPEN/CLOSE   UNIT 6587   STATUS:OLD                 
 FORMAT:FORMATTED              ACCESS:SEQUENTIAL          
 ACTION:READ                


 OPENED C.ic_strt_layer3.txt
 FILE TYPE:OPEN/CLOSE   UNIT 6588   STATUS:OLD                 
 FORMAT:FORMATTED              ACCESS:SEQUENTIAL          
 ACTION:READ                


 OPENED C.ic_strt_layer4.txt
 FILE TYPE:OPEN/CLOSE   UNIT 6589   STATUS:OLD                 
 FORMAT:FORMATTED              ACCESS:SEQUENTIAL          
 ACTION:READ                


 OPENED C.ic_strt_layer5.txt
 FILE TYPE:OPEN/CLOSE   UNIT 6590   STATUS:OLD                 
 FORMAT:FORMATTED              ACCESS:SEQUENTIAL          
 ACTION:READ                


 OPENED C.ic_strt_layer6.txt
 FILE TYPE:OPEN/CLOSE   UNIT 6591   STATUS:OLD                 
 FORMAT:FORMATTED              ACCESS:SEQUENTIAL          
 ACTION:READ                


 OPENED C.ic_strt_layer7.txt
 FILE TYPE:OPEN/CLOSE   UNIT 6592   STATUS:OLD                 
 FORMAT:FORMATTED              ACCESS:SEQUENTIAL          
 ACTION:READ                


 OPENED C.ic_strt_layer8.txt
 FILE TYPE:OPEN/CLOSE   UNIT 6593   STATUS:OLD                 
 FORMAT:FORMATTED              ACCESS:SEQUENTIAL          
 ACTION:READ                


 OPENED C.ic_strt_layer9.txt
 FILE TYPE:OPEN/CLOSE   UNIT 6594   STATUS:OLD                 
 FORMAT:FORMATTED              ACCESS:SEQUENTIAL          
 ACTION:READ                


 OPENED C.ic_strt_layer10.txt
 FILE TYPE:OPEN/CLOSE   UNIT 6595   STATUS:OLD                 
 FORMAT:FORMATTED              ACCESS:SEQUENTIAL          
 ACTION:READ                

 END PROCESSING GRIDDATA

 MST -- MOBILE STORAGE AND TRANSFER PACKAGE, VERSION 1, 7/29/2020 INPUT READ FROM UNIT 5901


 # File generated by Flopy version 3.5.0.dev0 on 07/12/2024 at 09:44:05.
 PROCESSING MOBILE STORAGE AND TRANSFER OPTIONS
 END OF MOBILE STORAGE AND TRANSFER OPTIONS
 PROCESSING GRIDDATA

 OPENED C.mst_porosity.txt
 FILE TYPE:OPEN/CLOSE   UNIT 6596   STATUS:OLD                 
 FORMAT:FORMATTED              ACCESS:SEQUENTIAL          
 ACTION:READ                

 END PROCESSING GRIDDATA

 SSM -- SOURCE-SINK MIXING PACKAGE, VERSION 1, 8/25/2017 INPUT READ FROM UNIT 5934


 # File generated by Flopy version 3.5.0.dev0 on 07/12/2024 at 09:44:05.
 PROCESSING SSM OPTIONS
    SSM FLOW INFORMATION WILL BE PRINTED TO LISTING FILE WHENEVER ICBCFL IS NOT ZERO.
    CELL-BY-CELL FLOW INFORMATION WILL BE SAVED TO BINARY FILE WHENEVER ICBCFL IS NOT ZERO.
 END OF SSM OPTIONS

 OPENED C.ssm_sources.txt
 FILE TYPE:OPEN/CLOSE   UNIT 6597   STATUS:OLD                 
 FORMAT:FORMATTED              ACCESS:SEQUENTIAL          
 ACTION:READ                

 PROCESSING SOURCES
 AUX SOURCE DETECTED.
    USING AUX COLUMN 5 IN PACKAGE CHD
 END PROCESSING SOURCES
 OPTIONAL FILEINPUT BLOCK NOT FOUND.  CONTINUING.
      THE LAST TIME STEP WILL BE PRINTED
      THE LAST TIME STEP WILL BE PRINTED
 # File generated by Flopy version 3.5.0.dev0 on 07/12/2024 at 09:44:05.

 PROCESSING OC OPTIONS

    BUDGET INFORMATION WILL BE WRITTEN TO:
      UNIT NUMBER: 6598
      FILE NAME: C.cbb

 OPENED C.cbb
 FILE TYPE:DATA(BINARY)   UNIT 6598   STATUS:REPLACE             
 FORMAT:UNFORMATTED            ACCESS:STREAM              
 ACTION:READWRITE           

    CONCENTRATION INFORMATION WILL BE WRITTEN TO:
      UNIT NUMBER: 6599
      FILE NAME: C.ucn

 OPENED C.ucn
 FILE TYPE:DATA(BINARY)   UNIT 6599   STATUS:REPLACE             
 FORMAT:UNFORMATTED            ACCESS:STREAM              
 ACTION:READWRITE           

 END OF OC OPTIONS

start timestep kper="1" kstp="1" mode="normal"


 BEGIN READING OUTPUT CONTROL FOR STRESS PERIOD 1
      ALL TIME STEPS WILL BE SAVED
      ALL TIME STEPS WILL BE SAVED
      ALL TIME STEPS WILL BE PRINTED
      ALL TIME STEPS WILL BE PRINTED

 END READING OUTPUT CONTROL FOR STRESS PERIOD 1

 OPENED C.cnc_stress_period_data_1.txt
 FILE TYPE:OPEN/CLOSE   UNIT 6730   STATUS:OLD                 
 FORMAT:FORMATTED              ACCESS:SEQUENTIAL          
 ACTION:READ                

 UBDSV06 SAVING  SOURCE-SINK MIX IN MODEL C                PACKAGE C               CONNECTED TO MODEL C                PACKAGE SSM              ON UNIT   6598 AT TIME STEP      1, STRESS PERIOD      1
 UBDSV06 SAVING              CNC IN MODEL C                PACKAGE C               CONNECTED TO MODEL C                PACKAGE CNC              ON UNIT   6598 AT TIME STEP      1, STRESS PERIOD      1

 SSM PACKAGE (SSM) FLOW RATES   PERIOD      1   STEP        1
 ------------------------------------------------------------------------------------------------
   NUMBER   CELLID                   BOUND Q        SSM CONC          RATE         PACKAGE NAME  
 ------------------------------------------------------------------------------------------------
     1      (1,1,1)               2.08333361E-02  0.49054516      1.02196922E-02       CHD       
     2      (2,1,1)               2.08333361E-02  0.49054516      1.02196922E-02       CHD       
     3      (3,1,1)               2.08333361E-02  0.49054516      1.02196922E-02       CHD       
     4      (4,1,1)               0.0000000       0.0000000       0.0000000            CHD       
     5      (5,1,1)               0.0000000       0.0000000       0.0000000            CHD       
     6      (6,1,1)               0.0000000       0.0000000       0.0000000            CHD       
     7      (7,1,1)               0.0000000       0.0000000       0.0000000            CHD       
     8      (8,1,1)               0.0000000       0.0000000       0.0000000            CHD       
     9      (9,1,1)               0.0000000       0.0000000       0.0000000            CHD       
     10     (10,1,1)              0.0000000       0.0000000       0.0000000            CHD       
     11     (1,1,25)             -2.08333402E-02  3.9301009      -8.18771292E-02       CHD       
     12     (2,1,25)             -2.08333402E-02  3.9301009      -8.18771293E-02       CHD       
     13     (3,1,25)             -2.08333402E-02  3.9301009      -8.18771293E-02       CHD       
     14     (4,1,25)             -2.08333403E-02  3.9301009      -8.18771294E-02       CHD       
     15     (5,1,25)             -2.08333403E-02  3.9301009      -8.18771295E-02       CHD       
     16     (6,1,25)             -2.08333403E-02  3.9301009      -8.18771295E-02       CHD       
     17     (7,1,25)             -2.08333403E-02  3.9301009      -8.18771296E-02       CHD       
     18     (8,1,25)             -2.08333403E-02  3.9301009      -8.18771296E-02       CHD       
     19     (9,1,25)             -2.08333403E-02  3.9301009      -8.18771295E-02       CHD       
     20     (10,1,25)            -2.08333403E-02  3.9301009      -8.18771295E-02       CHD       
 ------------------------------------------------------------------------------------------------




 CNC PACKAGE (CNC) FLOW RATES   PERIOD      1   STEP        1
 -----------------------------------------------
   NUMBER   CELLID                    RATE      
 -----------------------------------------------
     1      (4,1,1)               0.13231130    
     2      (5,1,1)               8.19064660E-02
     3      (6,1,1)               8.18563274E-02
     4      (7,1,1)               8.18361990E-02
     5      (8,1,1)               8.18281012E-02
     6      (9,1,1)               8.18248590E-02
     7      (10,1,1)              8.18237176E-02
 -----------------------------------------------



1
  CONCENTRATION IN LAYER   1 AT END OF TIME STEP   1 IN STRESS PERIOD    1
  ---------------------------------------------------------------------------

                1               2               3               4               5               6               7               8               9              10
               11              12              13              14              15              16              17              18              19              20
               21              22              23              24              25
 ................................................................................................................................................................
   1  3.554594726     3.865049716     3.923976834     3.929557255     3.930051867     3.930096420     3.930100491     3.930100857     3.930100904     3.930100922    
      3.930100922     3.930100911     3.930100897     3.930100891     3.930100893     3.930100896     3.930100894     3.930100892     3.930100890     3.930100891    
      3.930100893     3.930100897     3.930100900     3.930100904     3.930100905    
1
  CONCENTRATION IN LAYER   2 AT END OF TIME STEP   1 IN STRESS PERIOD    1
  ---------------------------------------------------------------------------

                1               2               3               4               5               6               7               8               9              10
               11              12              13              14              15              16              17              18              19              20
               21              22              23              24              25
 ................................................................................................................................................................
   1  3.589256126     3.873053883     3.924645634     3.929603360     3.930055189     3.930096683     3.930100509     3.930100852     3.930100906     3.930100934    
      3.930100933     3.930100913     3.930100889     3.930100881     3.930100885     3.930100889     3.930100887     3.930100882     3.930100880     3.930100881    
      3.930100886     3.930100892     3.930100897     3.930100903     3.930100905    
1
  CONCENTRATION IN LAYER   3 AT END OF TIME STEP   1 IN STRESS PERIOD    1
  ---------------------------------------------------------------------------

                1               2               3               4               5               6               7               8               9              10
               11              12              13              14              15              16              17              18              19              20
               21              22              23              24              25
 ................................................................................................................................................................
   1  3.687003595     3.889980610     3.925809190     3.929681476     3.930061023     3.930097157     3.930100541     3.930100843     3.930100909     3.930100952    
      3.930100951     3.930100917     3.930100877     3.930100865     3.930100872     3.930100879     3.930100876     3.930100868     3.930100864     3.930100867    
      3.930100874     3.930100884     3.930100892     3.930100902     3.930100905    
1
  CONCENTRATION IN LAYER   4 AT END OF TIME STEP   1 IN STRESS PERIOD    1
  ---------------------------------------------------------------------------

                1               2               3               4               5               6               7               8               9              10
               11              12              13              14              15              16              17              18              19              20
               21              22              23              24              25
 ................................................................................................................................................................
   1  3.928349470     3.913736250     3.926973090     3.929768244     3.930068178     3.930097754     3.930100582     3.930100836     3.930100912     3.930100970    
      3.930100968     3.930100920     3.930100867     3.930100852     3.930100863     3.930100872     3.930100868     3.930100856     3.930100850     3.930100855    
      3.930100865     3.930100877     3.930100888     3.930100901     3.930100905    
1
  CONCENTRATION IN LAYER   5 AT END OF TIME STEP   1 IN STRESS PERIOD    1
  ---------------------------------------------------------------------------

                1               2               3               4               5               6               7               8               9              10
               11              12              13              14              15              16              17              18              19              20
               21              22              23              24              25
 ................................................................................................................................................................
   1  3.928349470     3.923292901     3.928242177     3.929863149     3.930075773     3.930098392     3.930100629     3.930100833     3.930100914     3.930100981    
      3.930100978     3.930100922     3.930100862     3.930100845     3.930100858     3.930100870     3.930100864     3.930100851     3.930100843     3.930100848    
      3.930100859     3.930100873     3.930100885     3.930100900     3.930100905    
1
  CONCENTRATION IN LAYER   6 AT END OF TIME STEP   1 IN STRESS PERIOD    1
  ---------------------------------------------------------------------------

                1               2               3               4               5               6               7               8               9              10
               11              12              13              14              15              16              17              18              19              20
               21              22              23              24              25
 ................................................................................................................................................................
   1  3.928349470     3.927143551     3.929087243     3.929945022     3.930082785     3.930098995     3.930100677     3.930100835     3.930100915     3.930100984    
      3.930100981     3.930100923     3.930100861     3.930100844     3.930100858     3.930100870     3.930100864     3.930100850     3.930100842     3.930100846    
      3.930100858     3.930100872     3.930100883     3.930100899     3.930100905    
1
  CONCENTRATION IN LAYER   7 AT END OF TIME STEP   1 IN STRESS PERIOD    1
  ---------------------------------------------------------------------------

                1               2               3               4               5               6               7               8               9              10
               11              12              13              14              15              16              17              18              19              20
               21              22              23              24              25
 ................................................................................................................................................................
   1  3.928349470     3.928689415     3.929572868     3.930005219     3.930088495     3.930099509     3.930100723     3.930100841     3.930100915     3.930100982    
      3.930100979     3.930100923     3.930100863     3.930100847     3.930100860     3.930100872     3.930100866     3.930100852     3.930100844     3.930100848    
      3.930100859     3.930100873     3.930100884     3.930100899     3.930100905    
1
  CONCENTRATION IN LAYER   8 AT END OF TIME STEP   1 IN STRESS PERIOD    1
  ---------------------------------------------------------------------------

                1               2               3               4               5               6               7               8               9              10
               11              12              13              14              15              16              17              18              19              20
               21              22              23              24              25
 ................................................................................................................................................................
   1  3.928349470     3.929311327     3.929824656     3.930044068     3.930092625     3.930099899     3.930100760     3.930100849     3.930100915     3.930100974    
      3.930100972     3.930100922     3.930100867     3.930100852     3.930100864     3.930100875     3.930100870     3.930100857     3.930100850     3.930100853    
      3.930100863     3.930100875     3.930100885     3.930100899     3.930100905    
1
  CONCENTRATION IN LAYER   9 AT END OF TIME STEP   1 IN STRESS PERIOD    1
  ---------------------------------------------------------------------------

                1               2               3               4               5               6               7               8               9              10
               11              12              13              14              15              16              17              18              19              20
               21              22              23              24              25
 ................................................................................................................................................................
   1  3.928349470     3.929560329     3.929942397     3.930065895     3.930095214     3.930100153     3.930100789     3.930100860     3.930100913     3.930100961    
      3.930100959     3.930100919     3.930100875     3.930100862     3.930100871     3.930100880     3.930100876     3.930100866     3.930100860     3.930100863    
      3.930100870     3.930100880     3.930100889     3.930100900     3.930100905    
1
  CONCENTRATION IN LAYER  10 AT END OF TIME STEP   1 IN STRESS PERIOD    1
  ---------------------------------------------------------------------------

                1               2               3               4               5               6               7               8               9              10
               11              12              13              14              15              16              17              18              19              20
               21              22              23              24              25
 ................................................................................................................................................................
   1  3.928349470     3.929647987     3.929988267     3.930075420     3.930096423     3.930100267     3.930100810     3.930100875     3.930100909     3.930100938    
      3.930100937     3.930100915     3.930100889     3.930100880     3.930100885     3.930100890     3.930100888     3.930100882     3.930100878     3.930100880    
      3.930100884     3.930100890     3.930100895     3.930100902     3.930100905    

 CONCENTRATION WILL BE SAVED ON UNIT 6599 AT END OF TIME STEP    1, STRESS PERIOD    1


  MASS BUDGET FOR ENTIRE MODEL AT END OF TIME STEP    1, STRESS PERIOD   1
  ---------------------------------------------------------------------------------------------------

     CUMULATIVE MASS      M       RATES FOR THIS TIME STEP      M/T          PACKAGE NAME    
     ------------------                 ------------------------                     ----------------

           IN:                                      IN:
           ---                                      ---
     STORAGE-AQUEOUS =           1.6473       STORAGE-AQUEOUS =           0.1647     MST                              
                 CHD =           0.3066                   CHD =       3.0659E-02     SSM_CHD                          
                 CNC =           6.2339                   CNC =           0.6234     CNC                              

            TOTAL IN =           8.1877              TOTAL IN =           0.8188

          OUT:                                     OUT:
          ----                                     ----
     STORAGE-AQUEOUS =       1.7546E-06       STORAGE-AQUEOUS =       1.7546E-07     MST                              
                 CHD =           8.1877                   CHD =           0.8188     SSM_CHD                          
                 CNC =           0.0000                   CNC =           0.0000     CNC                              

           TOTAL OUT =           8.1877             TOTAL OUT =           0.8188

            IN - OUT =      -2.1843E-09              IN - OUT =      -2.1843E-10

 PERCENT DISCREPANCY =          -0.00     PERCENT DISCREPANCY =          -0.00




         TIME SUMMARY AT END OF TIME STEP    1 IN STRESS PERIOD    1
                    SECONDS     MINUTES      HOURS       DAYS        YEARS
                    -----------------------------------------------------------
   TIME STEP LENGTH 8.64000E+05  14400.      240.00      10.000     2.73785E-02
 STRESS PERIOD TIME 8.64000E+05  14400.      240.00      10.000     2.73785E-02
         TOTAL TIME 8.64000E+05  14400.      240.00      10.000     2.73785E-02


end timestep


start timestep kper="1" kstp="2" mode="normal"

 UBDSV06 SAVING  SOURCE-SINK MIX IN MODEL C                PACKAGE C               CONNECTED TO MODEL C                PACKAGE SSM              ON UNIT   6598 AT TIME STEP      2, STRESS PERIOD      1
 UBDSV06 SAVING              CNC IN MODEL C                PACKAGE C               CONNECTED TO MODEL C                PACKAGE CNC              ON UNIT   6598 AT TIME STEP      2, STRESS PERIOD      1

 SSM PACKAGE (SSM) FLOW RATES   PERIOD      1   STEP        2
 ------------------------------------------------------------------------------------------------
   NUMBER   CELLID                   BOUND Q        SSM CONC          RATE         PACKAGE NAME  
 ------------------------------------------------------------------------------------------------
     1      (1,1,1)               2.08333319E-02  0.49054516      1.02196901E-02       CHD       
     2      (2,1,1)               2.08333319E-02  0.49054516      1.02196901E-02       CHD       
     3      (3,1,1)               2.08333319E-02  0.49054516      1.02196901E-02       CHD       
     4      (4,1,1)               0.0000000       0.0000000       0.0000000            CHD       
     5      (5,1,1)               0.0000000       0.0000000       0.0000000            CHD       
     6      (6,1,1)               0.0000000       0.0000000       0.0000000            CHD       
     7      (7,1,1)               0.0000000       0.0000000       0.0000000            CHD       
     8      (8,1,1)               0.0000000       0.0000000       0.0000000            CHD       
     9      (9,1,1)               0.0000000       0.0000000       0.0000000            CHD       
     10     (10,1,1)              0.0000000       0.0000000       0.0000000            CHD       
     11     (1,1,25)             -2.08333370E-02  3.9301009      -8.18771165E-02       CHD       
     12     (2,1,25)             -2.08333370E-02  3.9301009      -8.18771165E-02       CHD       
     13     (3,1,25)             -2.08333370E-02  3.9301009      -8.18771166E-02       CHD       
     14     (4,1,25)             -2.08333370E-02  3.9301009      -8.18771166E-02       CHD       
     15     (5,1,25)             -2.08333370E-02  3.9301009      -8.18771166E-02       CHD       
     16     (6,1,25)             -2.08333370E-02  3.9301009      -8.18771167E-02       CHD       
     17     (7,1,25)             -2.08333370E-02  3.9301009      -8.18771167E-02       CHD       
     18     (8,1,25)             -2.08333370E-02  3.9301009      -8.18771167E-02       CHD       
     19     (9,1,25)             -2.08333370E-02  3.9301009      -8.18771167E-02       CHD       
     20     (10,1,25)            -2.08333370E-02  3.9301009      -8.18771167E-02       CHD       
 ------------------------------------------------------------------------------------------------




 CNC PACKAGE (CNC) FLOW RATES   PERIOD      1   STEP        2
 -----------------------------------------------
   NUMBER   CELLID                    RATE      
 -----------------------------------------------
     1      (4,1,1)               8.18118108E-02
     2      (5,1,1)               8.16175222E-02
     3      (6,1,1)               8.17218660E-02
     4      (7,1,1)               8.17770548E-02
     5      (8,1,1)               8.18034324E-02
     6      (9,1,1)               8.18144293E-02
     7      (10,1,1)              8.18179402E-02
 -----------------------------------------------



1
  CONCENTRATION IN LAYER   1 AT END OF TIME STEP   2 IN STRESS PERIOD    1
  ---------------------------------------------------------------------------

                1               2               3               4               5               6               7               8               9              10
               11              12              13              14              15              16              17              18              19              20
               21              22              23              24              25
 ................................................................................................................................................................
   1  4.011526010     4.016814441     3.952875835     3.933292863     3.930547797     3.930167389     3.930054214     3.930081573     3.930096574     3.930100336    
      3.930100841     3.930100899     3.930100895     3.930100888     3.930100884     3.930100881     3.930100878     3.930100876     3.930100876     3.930100878    
      3.930100882     3.930100887     3.930100893     3.930100901     3.930100905    
1
  CONCENTRATION IN LAYER   2 AT END OF TIME STEP   2 IN STRESS PERIOD    1
  ---------------------------------------------------------------------------

                1               2               3               4               5               6               7               8               9              10
               11              12              13              14              15              16              17              18              19              20
               21              22              23              24              25
 ................................................................................................................................................................
   1  3.978532696     4.004075046     3.950356830     3.933045092     3.930537875     3.930161978     3.930048545     3.930080699     3.930096513     3.930100340    
      3.930100836     3.930100895     3.930100892     3.930100884     3.930100877     3.930100872     3.930100867     3.930100866     3.930100866     3.930100869    
      3.930100875     3.930100882     3.930100890     3.930100900     3.930100904    
1
  CONCENTRATION IN LAYER   3 AT END OF TIME STEP   2 IN STRESS PERIOD    1
  ---------------------------------------------------------------------------

                1               2               3               4               5               6               7               8               9              10
               11              12              13              14              15              16              17              18              19              20
               21              22              23              24              25
 ................................................................................................................................................................
   1  3.926517098     3.982110907     3.946088400     3.932619835     3.930518352     3.930150986     3.930041042     3.930079640     3.930096452     3.930100348    
      3.930100829     3.930100890     3.930100888     3.930100879     3.930100867     3.930100857     3.930100851     3.930100849     3.930100852     3.930100856    
      3.930100864     3.930100873     3.930100884     3.930100898     3.930100904    
1
  CONCENTRATION IN LAYER   4 AT END OF TIME STEP   2 IN STRESS PERIOD    1
  ---------------------------------------------------------------------------

                1               2               3               4               5               6               7               8               9              10
               11              12              13              14              15              16              17              18              19              20
               21              22              23              24              25
 ................................................................................................................................................................
   1  3.928349470     3.959879058     3.941444638     3.932122322     3.930488939     3.930136176     3.930036208     3.930079209     3.930096475     3.930100365    
      3.930100826     3.930100886     3.930100886     3.930100876     3.930100859     3.930100844     3.930100836     3.930100835     3.930100839     3.930100845    
      3.930100853     3.930100865     3.930100878     3.930100896     3.930100904    
1
  CONCENTRATION IN LAYER   5 AT END OF TIME STEP   2 IN STRESS PERIOD    1
  ---------------------------------------------------------------------------

                1               2               3               4               5               6               7               8               9              10
               11              12              13              14              15              16              17              18              19              20
               21              22              23              24              25
 ................................................................................................................................................................
   1  3.928349470     3.945482475     3.937416301     3.931632306     3.930449988     3.930121102     3.930036267     3.930079840     3.930096638     3.930100390    
      3.930100827     3.930100885     3.930100885     3.930100874     3.930100854     3.930100837     3.930100828     3.930100827     3.930100831     3.930100838    
      3.930100847     3.930100860     3.930100874     3.930100895     3.930100904    
1
  CONCENTRATION IN LAYER   6 AT END OF TIME STEP   2 IN STRESS PERIOD    1
  ---------------------------------------------------------------------------

                1               2               3               4               5               6               7               8               9              10
               11              12              13              14              15              16              17              18              19              20
               21              22              23              24              25
 ................................................................................................................................................................
   1  3.928349470     3.937468866     3.934511965     3.931228120     3.930404933     3.930109076     3.930040984     3.930081486     3.930096937     3.930100424    
      3.930100831     3.930100886     3.930100885     3.930100874     3.930100854     3.930100836     3.930100826     3.930100825     3.930100829     3.930100836    
      3.930100845     3.930100858     3.930100872     3.930100894     3.930100904    
1
  CONCENTRATION IN LAYER   7 AT END OF TIME STEP   2 IN STRESS PERIOD    1
  ---------------------------------------------------------------------------

                1               2               3               4               5               6               7               8               9              10
               11              12              13              14              15              16              17              18              19              20
               21              22              23              24              25
 ................................................................................................................................................................
   1  3.928349470     3.933230361     3.932762345     3.930936605     3.930357948     3.930101844     3.930048692     3.930083761     3.930097321     3.930100461    
      3.930100836     3.930100887     3.930100886     3.930100875     3.930100856     3.930100838     3.930100829     3.930100828     3.930100831     3.930100838    
      3.930100846     3.930100859     3.930100872     3.930100893     3.930100904    
1
  CONCENTRATION IN LAYER   8 AT END OF TIME STEP   2 IN STRESS PERIOD    1
  ---------------------------------------------------------------------------

                1               2               3               4               5               6               7               8               9              10
               11              12              13              14              15              16              17              18              19              20
               21              22              23              24              25
 ................................................................................................................................................................
   1  3.928349470     3.931204559     3.931712837     3.930705938     3.930312536     3.930099510     3.930057250     3.930086135     3.930097713     3.930100495    
      3.930100841     3.930100889     3.930100888     3.930100877     3.930100860     3.930100844     3.930100835     3.930100834     3.930100837     3.930100843    
      3.930100851     3.930100862     3.930100875     3.930100894     3.930100904    
1
  CONCENTRATION IN LAYER   9 AT END OF TIME STEP   2 IN STRESS PERIOD    1
  ---------------------------------------------------------------------------

                1               2               3               4               5               6               7               8               9              10
               11              12              13              14              15              16              17              18              19              20
               21              22              23              24              25
 ................................................................................................................................................................
   1  3.928349470     3.930360004     3.931097328     3.930533920     3.930273799     3.930100613     3.930064559     3.930088074     3.930098028     3.930100522    
      3.930100848     3.930100893     3.930100890     3.930100880     3.930100866     3.930100854     3.930100847     3.930100845     3.930100847     3.930100852    
      3.930100859     3.930100868     3.930100879     3.930100895     3.930100904    
1
  CONCENTRATION IN LAYER  10 AT END OF TIME STEP   2 IN STRESS PERIOD    1
  ---------------------------------------------------------------------------

                1               2               3               4               5               6               7               8               9              10
               11              12              13              14              15              16              17              18              19              20
               21              22              23              24              25
 ................................................................................................................................................................
   1  3.928349470     3.930090366     3.930795200     3.930440457     3.930250757     3.930102461     3.930068823     3.930089143     3.930098196     3.930100543    
      3.930100862     3.930100900     3.930100891     3.930100881     3.930100874     3.930100869     3.930100863     3.930100860     3.930100860     3.930100863    
      3.930100869     3.930100877     3.930100885     3.930100897     3.930100904    

 CONCENTRATION WILL BE SAVED ON UNIT 6599 AT END OF TIME STEP    2, STRESS PERIOD    1


  MASS BUDGET FOR ENTIRE MODEL AT END OF TIME STEP    2, STRESS PERIOD   1
  ---------------------------------------------------------------------------------------------------

     CUMULATIVE MASS      M       RATES FOR THIS TIME STEP      M/T          PACKAGE NAME    
     ------------------                 ------------------------                     ----------------

           IN:                                      IN:
           ---                                      ---
     STORAGE-AQUEOUS =           3.9040       STORAGE-AQUEOUS =           0.2257     MST                              
                 CHD =           0.6132                   CHD =       3.0659E-02     SSM_CHD                          
                 CNC =          11.9575                   CNC =           0.5724     CNC                              

            TOTAL IN =          16.4747              TOTAL IN =           0.8287

          OUT:                                     OUT:
          ----                                     ----
     STORAGE-AQUEOUS =       9.9258E-02       STORAGE-AQUEOUS =       9.9256E-03     MST                              
                 CHD =          16.3754                   CHD =           0.8188     SSM_CHD                          
                 CNC =           0.0000                   CNC =           0.0000     CNC                              

           TOTAL OUT =          16.4747             TOTAL OUT =           0.8287

            IN - OUT =      -1.3801E-09              IN - OUT =       8.0415E-11

 PERCENT DISCREPANCY =          -0.00     PERCENT DISCREPANCY =           0.00




         TIME SUMMARY AT END OF TIME STEP    2 IN STRESS PERIOD    1
                    SECONDS     MINUTES      HOURS       DAYS        YEARS
                    -----------------------------------------------------------
   TIME STEP LENGTH 8.64000E+05  14400.      240.00      10.000     2.73785E-02
 STRESS PERIOD TIME 1.72800E+06  28800.      480.00      20.000     5.47570E-02
         TOTAL TIME 1.72800E+06  28800.      480.00      20.000     5.47570E-02


end timestep


start timestep kper="1" kstp="3" mode="normal"

 UBDSV06 SAVING  SOURCE-SINK MIX IN MODEL C                PACKAGE C               CONNECTED TO MODEL C                PACKAGE SSM              ON UNIT   6598 AT TIME STEP      3, STRESS PERIOD      1
 UBDSV06 SAVING              CNC IN MODEL C                PACKAGE C               CONNECTED TO MODEL C                PACKAGE CNC              ON UNIT   6598 AT TIME STEP      3, STRESS PERIOD      1

 SSM PACKAGE (SSM) FLOW RATES   PERIOD      1   STEP        3
 ------------------------------------------------------------------------------------------------
   NUMBER   CELLID                   BOUND Q        SSM CONC          RATE         PACKAGE NAME  
 ------------------------------------------------------------------------------------------------
     1      (1,1,1)               2.08333325E-02  0.49054516      1.02196904E-02       CHD       
     2      (2,1,1)               2.08333325E-02  0.49054516      1.02196904E-02       CHD       
     3      (3,1,1)               2.08333325E-02  0.49054516      1.02196904E-02       CHD       
     4      (4,1,1)               0.0000000       0.0000000       0.0000000            CHD       
     5      (5,1,1)               0.0000000       0.0000000       0.0000000            CHD       
     6      (6,1,1)               0.0000000       0.0000000       0.0000000            CHD       
     7      (7,1,1)               0.0000000       0.0000000       0.0000000            CHD       
     8      (8,1,1)               0.0000000       0.0000000       0.0000000            CHD       
     9      (9,1,1)               0.0000000       0.0000000       0.0000000            CHD       
     10     (10,1,1)              0.0000000       0.0000000       0.0000000            CHD       
     11     (1,1,25)             -2.08333362E-02  3.9301009      -8.18771134E-02       CHD       
     12     (2,1,25)             -2.08333362E-02  3.9301009      -8.18771134E-02       CHD       
     13     (3,1,25)             -2.08333362E-02  3.9301009      -8.18771134E-02       CHD       
     14     (4,1,25)             -2.08333362E-02  3.9301009      -8.18771135E-02       CHD       
     15     (5,1,25)             -2.08333362E-02  3.9301009      -8.18771135E-02       CHD       
     16     (6,1,25)             -2.08333362E-02  3.9301009      -8.18771135E-02       CHD       
     17     (7,1,25)             -2.08333362E-02  3.9301009      -8.18771135E-02       CHD       
     18     (8,1,25)             -2.08333362E-02  3.9301009      -8.18771135E-02       CHD       
     19     (9,1,25)             -2.08333362E-02  3.9301009      -8.18771135E-02       CHD       
     20     (10,1,25)            -2.08333362E-02  3.9301009      -8.18771135E-02       CHD       
 ------------------------------------------------------------------------------------------------




 CNC PACKAGE (CNC) FLOW RATES   PERIOD      1   STEP        3
 -----------------------------------------------
   NUMBER   CELLID                    RATE      
 -----------------------------------------------
     1      (4,1,1)               4.94245295E-02
     2      (5,1,1)               8.11766617E-02
     3      (6,1,1)               8.14974959E-02
     4      (7,1,1)               8.16701559E-02
     5      (8,1,1)               8.17565714E-02
     6      (9,1,1)               8.17953324E-02
     7      (10,1,1)              8.18094192E-02
 -----------------------------------------------



1
  CONCENTRATION IN LAYER   1 AT END OF TIME STEP   3 IN STRESS PERIOD    1
  ---------------------------------------------------------------------------

                1               2               3               4               5               6               7               8               9              10
               11              12              13              14              15              16              17              18              19              20
               21              22              23              24              25
 ................................................................................................................................................................
   1  4.327347997     4.196999649     3.974655591     3.934535979     3.930638012     3.930178992     3.930064250     3.930081904     3.930091747     3.930099096    
      3.930100844     3.930100999     3.930100931     3.930100887     3.930100874     3.930100869     3.930100865     3.930100863     3.930100863     3.930100865    
      3.930100871     3.930100878     3.930100887     3.930100898     3.930100903    
1
  CONCENTRATION IN LAYER   2 AT END OF TIME STEP   3 IN STRESS PERIOD    1
  ---------------------------------------------------------------------------

                1               2               3               4               5               6               7               8               9              10
               11              12              13              14              15              16              17              18              19              20
               21              22              23              24              25
 ................................................................................................................................................................
   1  4.239320310     4.159126132     3.971426448     3.934421332     3.930643964     3.930173950     3.930061439     3.930084500     3.930091726     3.930098867    
      3.930100944     3.930100997     3.930100925     3.930100881     3.930100866     3.930100860     3.930100856     3.930100854     3.930100854     3.930100858    
      3.930100864     3.930100873     3.930100884     3.930100897     3.930100903    
1
  CONCENTRATION IN LAYER   3 AT END OF TIME STEP   3 IN STRESS PERIOD    1
  ---------------------------------------------------------------------------

                1               2               3               4               5               6               7               8               9              10
               11              12              13              14              15              16              17              18              19              20
               21              22              23              24              25
 ................................................................................................................................................................
   1  4.078037470     4.092877887     3.965933119     3.934235820     3.930652302     3.930163938     3.930059717     3.930087504     3.930091735     3.930098760    
      3.930100988     3.930100988     3.930100916     3.930100872     3.930100855     3.930100846     3.930100841     3.930100840     3.930100841     3.930100845    
      3.930100854     3.930100865     3.930100878     3.930100895     3.930100903    
1
  CONCENTRATION IN LAYER   4 AT END OF TIME STEP   3 IN STRESS PERIOD    1
  ---------------------------------------------------------------------------

                1               2               3               4               5               6               7               8               9              10
               11              12              13              14              15              16              17              18              19              20
               21              22              23              24              25
 ................................................................................................................................................................
   1  3.928349470     4.022896614     3.958295441     3.933962403     3.930652927     3.930150981     3.930062659     3.930088032     3.930091927     3.930098813    
      3.930101011     3.930100980     3.930100908     3.930100864     3.930100844     3.930100834     3.930100828     3.930100827     3.930100828     3.930100834    
      3.930100843     3.930100857     3.930100873     3.930100893     3.930100903    
1
  CONCENTRATION IN LAYER   5 AT END OF TIME STEP   3 IN STRESS PERIOD    1
  ---------------------------------------------------------------------------

                1               2               3               4               5               6               7               8               9              10
               11              12              13              14              15              16              17              18              19              20
               21              22              23              24              25
 ................................................................................................................................................................
   1  3.928349470     3.979340760     3.950096645     3.933475282     3.930631414     3.930138055     3.930068273     3.930087901     3.930092063     3.930098917    
      3.930101027     3.930100977     3.930100904     3.930100859     3.930100838     3.930100827     3.930100820     3.930100819     3.930100820     3.930100826    
      3.930100837     3.930100852     3.930100869     3.930100891     3.930100902    
1
  CONCENTRATION IN LAYER   6 AT END OF TIME STEP   3 IN STRESS PERIOD    1
  ---------------------------------------------------------------------------

                1               2               3               4               5               6               7               8               9              10
               11              12              13              14              15              16              17              18              19              20
               21              22              23              24              25
 ................................................................................................................................................................
   1  3.928349470     3.954700696     3.943421072     3.932878850     3.930585508     3.930127458     3.930074156     3.930088265     3.930092342     3.930099015    
      3.930101040     3.930100980     3.930100903     3.930100858     3.930100836     3.930100825     3.930100818     3.930100816     3.930100817     3.930100823    
      3.930100834     3.930100850     3.930100867     3.930100890     3.930100902    
1
  CONCENTRATION IN LAYER   7 AT END OF TIME STEP   3 IN STRESS PERIOD    1
  ---------------------------------------------------------------------------

                1               2               3               4               5               6               7               8               9              10
               11              12              13              14              15              16              17              18              19              20
               21              22              23              24              25
 ................................................................................................................................................................
   1  3.928349470     3.941440410     3.938871970     3.932312146     3.930524129     3.930120439     3.930078761     3.930089141     3.930092912     3.930099099    
      3.930101051     3.930100990     3.930100906     3.930100860     3.930100838     3.930100827     3.930100820     3.930100818     3.930100819     3.930100825    
      3.930100835     3.930100850     3.930100867     3.930100889     3.930100902    
1
  CONCENTRATION IN LAYER   8 AT END OF TIME STEP   3 IN STRESS PERIOD    1
  ---------------------------------------------------------------------------

                1               2               3               4               5               6               7               8               9              10
               11              12              13              14              15              16              17              18              19              20
               21              22              23              24              25
 ................................................................................................................................................................
   1  3.928349470     3.934803697     3.935907485     3.931820496     3.930460881     3.930117325     3.930080980     3.930090130     3.930093725     3.930099162    
      3.930101075     3.930101010     3.930100912     3.930100863     3.930100843     3.930100833     3.930100827     3.930100825     3.930100825     3.930100830    
      3.930100840     3.930100854     3.930100869     3.930100890     3.930100902    
1
  CONCENTRATION IN LAYER   9 AT END OF TIME STEP   3 IN STRESS PERIOD    1
  ---------------------------------------------------------------------------

                1               2               3               4               5               6               7               8               9              10
               11              12              13              14              15              16              17              18              19              20
               21              22              23              24              25
 ................................................................................................................................................................
   1  3.928349470     3.931826854     3.934060225     3.931456098     3.930411107     3.930117391     3.930080518     3.930090683     3.930094614     3.930099173    
      3.930101127     3.930101041     3.930100919     3.930100869     3.930100851     3.930100842     3.930100836     3.930100834     3.930100834     3.930100838    
      3.930100847     3.930100859     3.930100873     3.930100891     3.930100902    
1
  CONCENTRATION IN LAYER  10 AT END OF TIME STEP   3 IN STRESS PERIOD    1
  ---------------------------------------------------------------------------

                1               2               3               4               5               6               7               8               9              10
               11              12              13              14              15              16              17              18              19              20
               21              22              23              24              25
 ................................................................................................................................................................
   1  3.928349470     3.930744989     3.933142510     3.931276238     3.930385261     3.930118548     3.930079282     3.930090195     3.930095327     3.930099115    
      3.930101204     3.930101073     3.930100926     3.930100876     3.930100861     3.930100853     3.930100847     3.930100845     3.930100845     3.930100848    
      3.930100855     3.930100865     3.930100877     3.930100892     3.930100902    

 CONCENTRATION WILL BE SAVED ON UNIT 6599 AT END OF TIME STEP    3, STRESS PERIOD    1


  MASS BUDGET FOR ENTIRE MODEL AT END OF TIME STEP    3, STRESS PERIOD   1
  ---------------------------------------------------------------------------------------------------

     CUMULATIVE MASS      M       RATES FOR THIS TIME STEP      M/T          PACKAGE NAME    
     ------------------                 ------------------------                     ----------------

           IN:                                      IN:
           ---                                      ---
     STORAGE-AQUEOUS =           6.6898       STORAGE-AQUEOUS =           0.2786     MST                              
                 CHD =           0.9198                   CHD =       3.0659E-02     SSM_CHD                          
                 CNC =          17.6607                   CNC =           0.5703     CNC                              

            TOTAL IN =          25.2702              TOTAL IN =           0.8796

          OUT:                                     OUT:
          ----                                     ----
     STORAGE-AQUEOUS =           0.3952       STORAGE-AQUEOUS =       2.9596E-02     MST                              
                 CHD =          24.5631                   CHD =           0.8188     SSM_CHD                          
                 CNC =           0.3118                   CNC =       3.1185E-02     CNC                              

           TOTAL OUT =          25.2702             TOTAL OUT =           0.8796

            IN - OUT =      -3.7399E-10              IN - OUT =       1.0062E-10

 PERCENT DISCREPANCY =          -0.00     PERCENT DISCREPANCY =           0.00




         TIME SUMMARY AT END OF TIME STEP    3 IN STRESS PERIOD    1
                    SECONDS     MINUTES      HOURS       DAYS        YEARS
                    -----------------------------------------------------------
   TIME STEP LENGTH 8.64000E+05  14400.      240.00      10.000     2.73785E-02
 STRESS PERIOD TIME 2.59200E+06  43200.      720.00      30.000     8.21355E-02
         TOTAL TIME 2.59200E+06  43200.      720.00      30.000     8.21355E-02


end timestep


start timestep kper="1" kstp="4" mode="normal"

 UBDSV06 SAVING  SOURCE-SINK MIX IN MODEL C                PACKAGE C               CONNECTED TO MODEL C                PACKAGE SSM              ON UNIT   6598 AT TIME STEP      4, STRESS PERIOD      1
 UBDSV06 SAVING              CNC IN MODEL C                PACKAGE C               CONNECTED TO MODEL C                PACKAGE CNC              ON UNIT   6598 AT TIME STEP      4, STRESS PERIOD      1

 SSM PACKAGE (SSM) FLOW RATES   PERIOD      1   STEP        4
 ------------------------------------------------------------------------------------------------
   NUMBER   CELLID                   BOUND Q        SSM CONC          RATE         PACKAGE NAME  
 ------------------------------------------------------------------------------------------------
     1      (1,1,1)               2.08333321E-02  0.49054516      1.02196902E-02       CHD       
     2      (2,1,1)               2.08333321E-02  0.49054516      1.02196902E-02       CHD       
     3      (3,1,1)               2.08333321E-02  0.49054516      1.02196902E-02       CHD       
     4      (4,1,1)               0.0000000       0.0000000       0.0000000            CHD       
     5      (5,1,1)               0.0000000       0.0000000       0.0000000            CHD       
     6      (6,1,1)               0.0000000       0.0000000       0.0000000            CHD       
     7      (7,1,1)               0.0000000       0.0000000       0.0000000            CHD       
     8      (8,1,1)               0.0000000       0.0000000       0.0000000            CHD       
     9      (9,1,1)               0.0000000       0.0000000       0.0000000            CHD       
     10     (10,1,1)              0.0000000       0.0000000       0.0000000            CHD       
     11     (1,1,25)             -2.08333356E-02  3.9301009      -8.18771111E-02       CHD       
     12     (2,1,25)             -2.08333356E-02  3.9301009      -8.18771111E-02       CHD       
     13     (3,1,25)             -2.08333356E-02  3.9301009      -8.18771111E-02       CHD       
     14     (4,1,25)             -2.08333356E-02  3.9301009      -8.18771111E-02       CHD       
     15     (5,1,25)             -2.08333356E-02  3.9301009      -8.18771111E-02       CHD       
     16     (6,1,25)             -2.08333356E-02  3.9301009      -8.18771111E-02       CHD       
     17     (7,1,25)             -2.08333356E-02  3.9301009      -8.18771111E-02       CHD       
     18     (8,1,25)             -2.08333356E-02  3.9301009      -8.18771111E-02       CHD       
     19     (9,1,25)             -2.08333356E-02  3.9301009      -8.18771111E-02       CHD       
     20     (10,1,25)            -2.08333356E-02  3.9301009      -8.18771111E-02       CHD       
 ------------------------------------------------------------------------------------------------




 CNC PACKAGE (CNC) FLOW RATES   PERIOD      1   STEP        4
 -----------------------------------------------
   NUMBER   CELLID                    RATE      
 -----------------------------------------------
     1      (4,1,1)               2.70368371E-02
     2      (5,1,1)               8.06140057E-02
     3      (6,1,1)               8.11840855E-02
     4      (7,1,1)               8.15023856E-02
     5      (8,1,1)               8.16694438E-02
     6      (9,1,1)               8.17509395E-02
     7      (10,1,1)              8.17823523E-02
 -----------------------------------------------



1
  CONCENTRATION IN LAYER   1 AT END OF TIME STEP   4 IN STRESS PERIOD    1
  ---------------------------------------------------------------------------

                1               2               3               4               5               6               7               8               9              10
               11              12              13              14              15              16              17              18              19              20
               21              22              23              24              25
 ................................................................................................................................................................
   1  4.553156700     4.376497656     3.997944614     3.934249844     3.930269507     3.930118475     3.930081706     3.930072855     3.930082357     3.930093642    
      3.930099837     3.930101281     3.930101090     3.930100920     3.930100870     3.930100858     3.930100853     3.930100851     3.930100852     3.930100855    
      3.930100861     3.930100870     3.930100881     3.930100894     3.930100902    
1
  CONCENTRATION IN LAYER   2 AT END OF TIME STEP   4 IN STRESS PERIOD    1
  ---------------------------------------------------------------------------

                1               2               3               4               5               6               7               8               9              10
               11              12              13              14              15              16              17              18              19              20
               21              22              23              24              25
 ................................................................................................................................................................
   1  4.420677157     4.316952445     3.992271735     3.934254150     3.930325896     3.930122839     3.930083516     3.930073826     3.930081680     3.930093280    
      3.930099717     3.930101265     3.930101081     3.930100915     3.930100863     3.930100851     3.930100845     3.930100843     3.930100844     3.930100848    
      3.930100855     3.930100866     3.930100878     3.930100893     3.930100902    
1
  CONCENTRATION IN LAYER   3 AT END OF TIME STEP   4 IN STRESS PERIOD    1
  ---------------------------------------------------------------------------

                1               2               3               4               5               6               7               8               9              10
               11              12              13              14              15              16              17              18              19              20
               21              22              23              24              25
 ................................................................................................................................................................
   1  4.180870775     4.212170871     3.983846463     3.934471692     3.930435299     3.930130743     3.930087847     3.930074869     3.930080622     3.930092809    
      3.930099579     3.930101233     3.930101068     3.930100906     3.930100854     3.930100839     3.930100833     3.930100831     3.930100832     3.930100838    
      3.930100846     3.930100859     3.930100873     3.930100891     3.930100901    
1
  CONCENTRATION IN LAYER   4 AT END OF TIME STEP   4 IN STRESS PERIOD    1
  ---------------------------------------------------------------------------

                1               2               3               4               5               6               7               8               9              10
               11              12              13              14              15              16              17              18              19              20
               21              22              23              24              25
 ................................................................................................................................................................
   1  3.928349470     4.096938526     3.975413615     3.934960612     3.930572783     3.930140416     3.930094608     3.930075333     3.930079616     3.930092449    
      3.930099496     3.930101199     3.930101055     3.930100898     3.930100844     3.930100828     3.930100821     3.930100819     3.930100821     3.930100827    
      3.930100838     3.930100852     3.930100868     3.930100889     3.930100901    
1
  CONCENTRATION IN LAYER   5 AT END OF TIME STEP   4 IN STRESS PERIOD    1
  ---------------------------------------------------------------------------

                1               2               3               4               5               6               7               8               9              10
               11              12              13              14              15              16              17              18              19              20
               21              22              23              24              25
 ................................................................................................................................................................
   1  3.928349470     4.022552627     3.964600259     3.935064405     3.930683810     3.930149337     3.930102070     3.930075648     3.930079061     3.930092333    
      3.930099486     3.930101178     3.930101046     3.930100893     3.930100839     3.930100821     3.930100813     3.930100811     3.930100813     3.930100820    
      3.930100831     3.930100847     3.930100864     3.930100887     3.930100900    
1
  CONCENTRATION IN LAYER   6 AT END OF TIME STEP   4 IN STRESS PERIOD    1
  ---------------------------------------------------------------------------

                1               2               3               4               5               6               7               8               9              10
               11              12              13              14              15              16              17              18              19              20
               21              22              23              24              25
 ................................................................................................................................................................
   1  3.928349470     3.978770498     3.954482574     3.934702804     3.930735178     3.930155458     3.930108383     3.930076203     3.930079270     3.930092516    
      3.930099531     3.930101174     3.930101044     3.930100891     3.930100837     3.930100819     3.930100810     3.930100808     3.930100810     3.930100817    
      3.930100829     3.930100844     3.930100862     3.930100886     3.930100900    
1
  CONCENTRATION IN LAYER   7 AT END OF TIME STEP   4 IN STRESS PERIOD    1
  ---------------------------------------------------------------------------

                1               2               3               4               5               6               7               8               9              10
               11              12              13              14              15              16              17              18              19              20
               21              22              23              24              25
 ................................................................................................................................................................
   1  3.928349470     3.954325048     3.946771070     3.934095287     3.930729624     3.930158392     3.930112363     3.930077041     3.930080299     3.930092965    
      3.930099605     3.930101189     3.930101049     3.930100892     3.930100838     3.930100821     3.930100812     3.930100810     3.930100812     3.930100818    
      3.930100829     3.930100845     3.930100862     3.930100885     3.930100900    
1
  CONCENTRATION IN LAYER   8 AT END OF TIME STEP   4 IN STRESS PERIOD    1
  ---------------------------------------------------------------------------

                1               2               3               4               5               6               7               8               9              10
               11              12              13              14              15              16              17              18              19              20
               21              22              23              24              25
 ................................................................................................................................................................
   1  3.928349470     3.941494978     3.941382030     3.933461275     3.930691464     3.930159188     3.930113489     3.930078061     3.930081923     3.930093555    
      3.930099686     3.930101219     3.930101060     3.930100896     3.930100842     3.930100826     3.930100817     3.930100815     3.930100817     3.930100823    
      3.930100833     3.930100847     3.930100864     3.930100886     3.930100900    
1
  CONCENTRATION IN LAYER   9 AT END OF TIME STEP   4 IN STRESS PERIOD    1
  ---------------------------------------------------------------------------

                1               2               3               4               5               6               7               8               9              10
               11              12              13              14              15              16              17              18              19              20
               21              22              23              24              25
 ................................................................................................................................................................
   1  3.928349470     3.935236109     3.938116278     3.932899669     3.930648215     3.930159471     3.930112056     3.930079184     3.930083672     3.930094092    
      3.930099758     3.930101257     3.930101073     3.930100900     3.930100848     3.930100833     3.930100826     3.930100823     3.930100824     3.930100829    
      3.930100838     3.930100852     3.930100867     3.930100887     3.930100900    
1
  CONCENTRATION IN LAYER  10 AT END OF TIME STEP   4 IN STRESS PERIOD    1
  ---------------------------------------------------------------------------

                1               2               3               4               5               6               7               8               9              10
               11              12              13              14              15              16              17              18              19              20
               21              22              23              24              25
 ................................................................................................................................................................
   1  3.928349470     3.932823600     3.936439791     3.932628627     3.930625529     3.930159808     3.930110106     3.930080006     3.930084862     3.930094394    
      3.930099807     3.930101289     3.930101084     3.930100906     3.930100855     3.930100841     3.930100835     3.930100832     3.930100832     3.930100837    
      3.930100845     3.930100857     3.930100870     3.930100888     3.930100900    

 CONCENTRATION WILL BE SAVED ON UNIT 6599 AT END OF TIME STEP    4, STRESS PERIOD    1


  MASS BUDGET FOR ENTIRE MODEL AT END OF TIME STEP    4, STRESS PERIOD   1
  ---------------------------------------------------------------------------------------------------

     CUMULATIVE MASS      M       RATES FOR THIS TIME STEP      M/T          PACKAGE NAME    
     ------------------                 ------------------------                     ----------------

           IN:                                      IN:
           ---                                      ---
     STORAGE-AQUEOUS =           9.9179       STORAGE-AQUEOUS =           0.3228     MST                              
                 CHD =           1.2264                   CHD =       3.0659E-02     SSM_CHD                          
                 CNC =          23.3421                   CNC =           0.5681     CNC                              

            TOTAL IN =          34.4864              TOTAL IN =           0.9216

          OUT:                                     OUT:
          ----                                     ----
     STORAGE-AQUEOUS =           0.8976       STORAGE-AQUEOUS =       5.0240E-02     MST                              
                 CHD =          32.7508                   CHD =           0.8188     SSM_CHD                          
                 CNC =           0.8379                   CNC =       5.2609E-02     CNC                              

           TOTAL OUT =          34.4864             TOTAL OUT =           0.9216

            IN - OUT =       3.7871E-10              IN - OUT =       7.5269E-11

 PERCENT DISCREPANCY =           0.00     PERCENT DISCREPANCY =           0.00




         TIME SUMMARY AT END OF TIME STEP    4 IN STRESS PERIOD    1
                    SECONDS     MINUTES      HOURS       DAYS        YEARS
                    -----------------------------------------------------------
   TIME STEP LENGTH 8.64000E+05  14400.      240.00      10.000     2.73785E-02
 STRESS PERIOD TIME 3.45600E+06  57600.      960.00      40.000     0.10951    
         TOTAL TIME 3.45600E+06  57600.      960.00      40.000     0.10951    


end timestep


start timestep kper="1" kstp="5" mode="normal"

 UBDSV06 SAVING  SOURCE-SINK MIX IN MODEL C                PACKAGE C               CONNECTED TO MODEL C                PACKAGE SSM              ON UNIT   6598 AT TIME STEP      5, STRESS PERIOD      1
 UBDSV06 SAVING              CNC IN MODEL C                PACKAGE C               CONNECTED TO MODEL C                PACKAGE CNC              ON UNIT   6598 AT TIME STEP      5, STRESS PERIOD      1

 SSM PACKAGE (SSM) FLOW RATES   PERIOD      1   STEP        5
 ------------------------------------------------------------------------------------------------
   NUMBER   CELLID                   BOUND Q        SSM CONC          RATE         PACKAGE NAME  
 ------------------------------------------------------------------------------------------------
     1      (1,1,1)               2.08333321E-02  0.49054516      1.02196902E-02       CHD       
     2      (2,1,1)               2.08333321E-02  0.49054516      1.02196902E-02       CHD       
     3      (3,1,1)               2.08333321E-02  0.49054516      1.02196902E-02       CHD       
     4      (4,1,1)               0.0000000       0.0000000       0.0000000            CHD       
     5      (5,1,1)               0.0000000       0.0000000       0.0000000            CHD       
     6      (6,1,1)               0.0000000       0.0000000       0.0000000            CHD       
     7      (7,1,1)               0.0000000       0.0000000       0.0000000            CHD       
     8      (8,1,1)               0.0000000       0.0000000       0.0000000            CHD       
     9      (9,1,1)               0.0000000       0.0000000       0.0000000            CHD       
     10     (10,1,1)              0.0000000       0.0000000       0.0000000            CHD       
     11     (1,1,25)             -2.08333353E-02  3.9301009      -8.18771099E-02       CHD       
     12     (2,1,25)             -2.08333353E-02  3.9301009      -8.18771099E-02       CHD       
[...]
               21              22              23              24              25
 ................................................................................................................................................................
   1  3.928349470     3.906587789     3.813819767     3.847605620     3.993209382     4.187209555     4.373883647     4.519138700     4.617864627     4.683676406    
      4.733208289     4.778819670     4.825516083     4.870461509     4.911417982     4.936820961     4.963680686     4.985449902     4.995156561     4.992052958    
      4.969432447     4.929236402     4.875334262     4.811062239     4.743869850    

 CONCENTRATION WILL BE SAVED ON UNIT 6599 AT END OF TIME STEP  199, STRESS PERIOD    1


  MASS BUDGET FOR ENTIRE MODEL AT END OF TIME STEP  199, STRESS PERIOD   1
  ---------------------------------------------------------------------------------------------------

     CUMULATIVE MASS      M       RATES FOR THIS TIME STEP      M/T          PACKAGE NAME    
     ------------------                 ------------------------                     ----------------

           IN:                                      IN:
           ---                                      ---
     STORAGE-AQUEOUS =        1256.8952       STORAGE-AQUEOUS =           0.5890     MST                              
                 CHD =          61.0116                   CHD =       3.0659E-02     SSM_CHD                          
                 CNC =        1328.4946                   CNC =           0.7204     CNC                              

            TOTAL IN =        2646.4014              TOTAL IN =           1.3401

          OUT:                                     OUT:
          ----                                     ----
     STORAGE-AQUEOUS =         950.2414       STORAGE-AQUEOUS =           0.3518     MST                              
                 CHD =        1682.1507                   CHD =           0.9883     SSM_CHD                          
                 CNC =          14.0093                   CNC =           0.0000     CNC                              

           TOTAL OUT =        2646.4014             TOTAL OUT =           1.3401

            IN - OUT =      -7.6740E-08              IN - OUT =       1.2051E-09

 PERCENT DISCREPANCY =          -0.00     PERCENT DISCREPANCY =           0.00




         TIME SUMMARY AT END OF TIME STEP  199 IN STRESS PERIOD    1
                    SECONDS     MINUTES      HOURS       DAYS        YEARS
                    -----------------------------------------------------------
   TIME STEP LENGTH 8.64000E+05  14400.      240.00      10.000     2.73785E-02
 STRESS PERIOD TIME 1.71936E+08 2.86560E+06  47760.      1990.0      5.4483    
         TOTAL TIME 1.71936E+08 2.86560E+06  47760.      1990.0      5.4483    


end timestep


start timestep kper="1" kstp="200" mode="normal"

 UBDSV06 SAVING  SOURCE-SINK MIX IN MODEL C                PACKAGE C               CONNECTED TO MODEL C                PACKAGE SSM              ON UNIT   6598 AT TIME STEP    200, STRESS PERIOD      1
 UBDSV06 SAVING              CNC IN MODEL C                PACKAGE C               CONNECTED TO MODEL C                PACKAGE CNC              ON UNIT   6598 AT TIME STEP    200, STRESS PERIOD      1

 SSM PACKAGE (SSM) FLOW RATES   PERIOD      1   STEP      200
 ------------------------------------------------------------------------------------------------
   NUMBER   CELLID                   BOUND Q        SSM CONC          RATE         PACKAGE NAME  
 ------------------------------------------------------------------------------------------------
     1      (1,1,1)               2.08333330E-02  0.49054516      1.02196907E-02       CHD       
     2      (2,1,1)               2.08333330E-02  0.49054516      1.02196907E-02       CHD       
     3      (3,1,1)               2.08333330E-02  0.49054516      1.02196907E-02       CHD       
     4      (4,1,1)               0.0000000       0.0000000       0.0000000            CHD       
     5      (5,1,1)               0.0000000       0.0000000       0.0000000            CHD       
     6      (6,1,1)               0.0000000       0.0000000       0.0000000            CHD       
     7      (7,1,1)               0.0000000       0.0000000       0.0000000            CHD       
     8      (8,1,1)               0.0000000       0.0000000       0.0000000            CHD       
     9      (9,1,1)               0.0000000       0.0000000       0.0000000            CHD       
     10     (10,1,1)              0.0000000       0.0000000       0.0000000            CHD       
     11     (1,1,25)             -2.08333337E-02  4.7549947      -9.90623905E-02       CHD       
     12     (2,1,25)             -2.08333337E-02  4.7549948      -9.90623923E-02       CHD       
     13     (3,1,25)             -2.08333337E-02  4.7549949      -9.90623955E-02       CHD       
     14     (4,1,25)             -2.08333337E-02  4.7549951      -9.90623997E-02       CHD       
     15     (5,1,25)             -2.08333337E-02  4.7549953      -9.90624045E-02       CHD       
     16     (6,1,25)             -2.08333337E-02  4.7549956      -9.90624095E-02       CHD       
     17     (7,1,25)             -2.08333337E-02  4.7549958      -9.90624144E-02       CHD       
     18     (8,1,25)             -2.08333337E-02  4.7549960      -9.90624187E-02       CHD       
     19     (9,1,25)             -2.08333337E-02  4.7549962      -9.90624221E-02       CHD       
     20     (10,1,25)            -2.08333337E-02  4.7549963      -9.90624242E-02       CHD       
 ------------------------------------------------------------------------------------------------




 CNC PACKAGE (CNC) FLOW RATES   PERIOD      1   STEP      200
 -----------------------------------------------
   NUMBER   CELLID                    RATE      
 -----------------------------------------------
     1      (4,1,1)               0.21312271    
     2      (5,1,1)               8.92550958E-02
     3      (6,1,1)               8.73704614E-02
     4      (7,1,1)               8.36642899E-02
     5      (8,1,1)               8.24469508E-02
     6      (9,1,1)               8.21563480E-02
     7      (10,1,1)              8.20693663E-02
 -----------------------------------------------



1
  CONCENTRATION IN LAYER   1 AT END OF TIME STEP 200 IN STRESS PERIOD    1
  ---------------------------------------------------------------------------

                1               2               3               4               5               6               7               8               9              10
               11              12              13              14              15              16              17              18              19              20
               21              22              23              24              25
 ................................................................................................................................................................
   1  2.742152038     3.349987369     3.175251681     3.389005058     4.339317821     4.646676989     4.661861716     4.671920103     4.694751466     4.720701096    
      4.754288561     4.786874471     4.824041152     4.865660284     4.906649937     4.932798087     4.959952958     4.982377767     4.993226398     4.992447486    
      4.972501884     4.934686686     4.882956296     4.820601463     4.754994670    
1
  CONCENTRATION IN LAYER   2 AT END OF TIME STEP 200 IN STRESS PERIOD    1
  ---------------------------------------------------------------------------

                1               2               3               4               5               6               7               8               9              10
               11              12              13              14              15              16              17              18              19              20
               21              22              23              24              25
 ................................................................................................................................................................
   1  2.929607965     3.330397559     3.174998796     3.484965091     4.320303421     4.606757163     4.640965830     4.662489227     4.690415192     4.718822526    
      4.752723973     4.786130724     4.823790970     4.865582257     4.906630366     4.932733560     4.959897035     4.982344381     4.993210153     4.992441671    
      4.972501344     4.934687047     4.882956610     4.820601634     4.754994756    
1
  CONCENTRATION IN LAYER   3 AT END OF TIME STEP 200 IN STRESS PERIOD    1
  ---------------------------------------------------------------------------

                1               2               3               4               5               6               7               8               9              10
               11              12              13              14              15              16              17              18              19              20
               21              22              23              24              25
 ................................................................................................................................................................
   1  3.336197114     3.311909587     3.181694672     3.680156584     4.289678820     4.536938550     4.603542699     4.645072900     4.682196882     4.715077594    
      4.749881222     4.784762551     4.823313710     4.865429250     4.906591177     4.932609796     4.959790452     4.982280905     4.993179320     4.992430596    
      4.972500310     4.934687733     4.882957217     4.820601950     4.754994909    
1
  CONCENTRATION IN LAYER   4 AT END OF TIME STEP 200 IN STRESS PERIOD    1
  ---------------------------------------------------------------------------

                1               2               3               4               5               6               7               8               9              10
               11              12              13              14              15              16              17              18              19              20
               21              22              23              24              25
 ................................................................................................................................................................
   1  3.928349470     3.320322271     3.212681791     3.872427022     4.240378177     4.457294816     4.557115825     4.622089865     4.670976226     4.709578386    
      4.746251113     4.782970601     4.822658625     4.865211280     4.906533279     4.932437229     4.959643283     4.982193596     4.993137018     4.992415328    
      4.972498871     4.934688678     4.882958058     4.820602385     4.754995110    
1
  CONCENTRATION IN LAYER   5 AT END OF TIME STEP 200 IN STRESS PERIOD    1
  ---------------------------------------------------------------------------

                1               2               3               4               5               6               7               8               9              10
               11              12              13              14              15              16              17              18              19              20
               21              22              23              24              25
 ................................................................................................................................................................
   1  3.928349470     3.358917153     3.298568652     3.936763800     4.186303246     4.380162536     4.508423895     4.596362298     4.657802870     4.702902283    
      4.742259999     4.780956264     4.821901123     4.864949688     4.906459857     4.932231011     4.959469543     4.982091044     4.993087480     4.992397350    
      4.972497159     4.934689789     4.882959049     4.820602896     4.754995341    
1
  CONCENTRATION IN LAYER   6 AT END OF TIME STEP 200 IN STRESS PERIOD    1
  ---------------------------------------------------------------------------

                1               2               3               4               5               6               7               8               9              10
               11              12              13              14              15              16              17              18              19              20
               21              22              23              24              25
 ................................................................................................................................................................
   1  3.928349470     3.503657079     3.463323449     3.938359022     4.132524045     4.313853078     4.462832276     4.570589795     4.644126474     4.695799046    
      4.738189334     4.778888483     4.821138203     4.864677202     4.906377015     4.932010131     4.959285953     4.981983309     4.993035603     4.992378420    
      4.972495335     4.934690958     4.882960095     4.820603434     4.754995583    
1
  CONCENTRATION IN LAYER   7 AT END OF TIME STEP 200 IN STRESS PERIOD    1
  ---------------------------------------------------------------------------

                1               2               3               4               5               6               7               8               9              10
               11              12              13              14              15              16              17              18              19              20
               21              22              23              24              25
 ................................................................................................................................................................
   1  3.928349470     3.788291056     3.737317851     3.920102675     4.082136467     4.260579460     4.423852275     4.547181248     4.631300625     4.689023251    
      4.734361077     4.776907061     4.820477211     4.864431306     4.906293296     4.931796009     4.959110423     4.981880931     4.992986464     4.992360395    
      4.972493578     4.934692070     4.882961092     4.820603945     4.754995816    
1
  CONCENTRATION IN LAYER   8 AT END OF TIME STEP 200 IN STRESS PERIOD    1
  ---------------------------------------------------------------------------

                1               2               3               4               5               6               7               8               9              10
               11              12              13              14              15              16              17              18              19              20
               21              22              23              24              25
 ................................................................................................................................................................
   1  3.928349470     3.881782699     3.775318481     3.890677091     4.040912388     4.220751751     4.393468760     4.528034437     4.620528759     4.683261671    
      4.731139967     4.775155903     4.819979673     4.864239080     4.906218573     4.931610604     4.958960355     4.981793902     4.992944821     4.992345040    
      4.972492067     4.934693019     4.882961943     4.820604375     4.754996023    
1
  CONCENTRATION IN LAYER   9 AT END OF TIME STEP 200 IN STRESS PERIOD    1
  ---------------------------------------------------------------------------

                1               2               3               4               5               6               7               8               9              10
               11              12              13              14              15              16              17              18              19              20
               21              22              23              24              25
 ................................................................................................................................................................
   1  3.928349470     3.904100994     3.803952047     3.868156143     4.011754434     4.194186755     4.372759281     4.514526344     4.612780307     4.679081490    
      4.728816947     4.773844069     4.819651807     4.864109884     4.906162347     4.931473978     4.958850872     4.981730700     4.992914666     4.992333863    
      4.972490960     4.934693710     4.882962564     4.820604681     4.754996187    
1
  CONCENTRATION IN LAYER  10 AT END OF TIME STEP 200 IN STRESS PERIOD    1
  ---------------------------------------------------------------------------

                1               2               3               4               5               6               7               8               9              10
               11              12              13              14              15              16              17              18              19              20
               21              22              23              24              25
 ................................................................................................................................................................
   1  3.928349470     3.910781188     3.818170429     3.856684055     3.996721346     4.180875989     4.362282694     4.507552669     4.608732411     4.676886507    
      4.727600722     4.773141981     4.819489652     4.864045260     4.906132109     4.931401500     4.958793158     4.981697480     4.992898854     4.992327975    
      4.972490375     4.934694075     4.882962892     4.820604834     4.754996287    

 CONCENTRATION WILL BE SAVED ON UNIT 6599 AT END OF TIME STEP  200, STRESS PERIOD    1


  MASS BUDGET FOR ENTIRE MODEL AT END OF TIME STEP  200, STRESS PERIOD   1
  ---------------------------------------------------------------------------------------------------

     CUMULATIVE MASS      M       RATES FOR THIS TIME STEP      M/T          PACKAGE NAME    
     ------------------                 ------------------------                     ----------------

           IN:                                      IN:
           ---                                      ---
     STORAGE-AQUEOUS =        1262.5621       STORAGE-AQUEOUS =           0.5667     MST                              
                 CHD =          61.3181                   CHD =       3.0659E-02     SSM_CHD                          
                 CNC =        1335.6955                   CNC =           0.7201     CNC                              

            TOTAL IN =        2659.5757              TOTAL IN =           1.3174

          OUT:                                     OUT:
          ----                                     ----
     STORAGE-AQUEOUS =         953.5094       STORAGE-AQUEOUS =           0.3268     MST                              
                 CHD =        1692.0570                   CHD =           0.9906     SSM_CHD                          
                 CNC =          14.0093                   CNC =           0.0000     CNC                              

           TOTAL OUT =        2659.5757             TOTAL OUT =           1.3174

            IN - OUT =      -6.5449E-08              IN - OUT =       1.1291E-09

 PERCENT DISCREPANCY =          -0.00     PERCENT DISCREPANCY =           0.00




         TIME SUMMARY AT END OF TIME STEP  200 IN STRESS PERIOD    1
                    SECONDS     MINUTES      HOURS       DAYS        YEARS
                    -----------------------------------------------------------
   TIME STEP LENGTH 8.64000E+05  14400.      240.00      10.000     2.73785E-02
 STRESS PERIOD TIME 1.72800E+08 2.88000E+06  48000.      2000.0      5.4757    
         TOTAL TIME 1.72800E+08 2.88000E+06  48000.      2000.0      5.4757    


end timestep

