                                   MODFLOW 6
                U.S. GEOLOGICAL SURVEY MODULAR HYDROLOGIC MODEL
                       GROUNDWATER TRANSPORT MODEL (GWT)
                VERSION 6.5.0.dev0+prt (preliminary) 10/07/2023
                               ***DEVELOP MODE***

   MODFLOW 6 compiled Oct 07 2023 02:19:02 with Intel(R) Fortran Intel(R) 64
   Compiler Classic for applications running on Intel(R) 64, Version 2021.7.0
                             Build 20220726_000000

This software is preliminary or provisional and is subject to 
revision. It is being provided to meet the need for timely best 
science. The software has not received final approval by the U.S. 
Geological Survey (USGS). No warranty, expressed or implied, is made 
by the USGS or the U.S. Government as to the functionality of the 
software and related material nor shall the fact of release 
constitute any such warranty. The software is provided on the 
condition that neither the USGS nor the U.S. Government shall be held 
liable for any damages resulting from the authorized or unauthorized 
use of the software.


As a work of the United States Government, this USGS product is 
in the public domain within the United States. You can copy, 
modify, distribute, and perform the work, even for commercial 
purposes, all without asking permission. Additionally, USGS 
waives copyright and related rights in the work worldwide 
through CC0 1.0 Universal Public Domain Dedication 
(https://creativecommons.org/publicdomain/zero/1.0/).

The following GNU Lesser General Public License (LGPL) libraries
are used in this USGS product:

    SPARSKIT version 2.0
      ilut, luson, and qsplit 
      (https://www-users.cse.umn.edu/~saad/software/SPARSKIT/)

    RCM - Reverse Cuthill McKee Ordering
      (https://people.math.sc.edu/Burkardt/f_src/rcm/rcm.html)

    BLAS - Basic Linear Algebra Subprograms Level 1
      (https://people.math.sc.edu/Burkardt/f_src/blas1_d/blas1_d.html)

    SPARSEKIT - Sparse Matrix Utility Package
      amux, dperm, dvperm, rperm, and cperm
      (https://people.sc.fsu.edu/~jburkardt/f77_src/sparsekit/sparsekit.html)

The following BSD-3 License libraries are used in this USGS product:

    Modern Fortran DAG Library
      Copyright (c) 2018, Jacob Williams
      All rights reserved.
      (https://github.com/jacobwilliams/daglib)

MODFLOW 6 compiler options: /Isrc\libmf6core.a.p /Isrc /I..\src
/Isrc\libmf6_external.a.p /MTd /nologo /warn:general /warn:truncated_source
/stand:f08 /Zi /traceback /O2 /fpe:0 /heap-arrays:0 /traceback /fpp
/Qdiag-disable:7416 /Qdiag-disable:7025 /Qdiag-disable:5268
/Fdsrc\libmf6core.a.p\Utilities_compilerversion.F90.pdb
/module:src\libmf6core.a.p
/Fosrc/libmf6core.a.p/Utilities_compilerversion.F90.obj /c

System command used to initiate simulation:
c:\Users\portega\anaconda3\envs\mf6rtm\python.exe -m ipykernel_launcher --f=c:\Users\portega\AppData\Roaming\jupyter\runtime\kernel-v2-51408na7dKTn0i5X.json

MODFLOW was compiled using uniform precision.

Real Variables
  KIND: 8
  TINY (smallest non-zero value):    2.225074-308
  HUGE (largest value):    1.797693+308
  PRECISION: 15
  SIZE IN BITS: 64

Integer Variables
  KIND: 4
  HUGE (largest value): 2147483647
  SIZE IN BITS: 32

Long Integer Variables
  KIND: 8
  HUGE (largest value): 9223372036854775807
  SIZE IN BITS: 64

Logical Variables
  KIND: 4
  SIZE IN BITS: 32
 
 NAMEFILE OPTIONS:
 END NAMEFILE OPTIONS:

 DIS -- STRUCTURED GRID DISCRETIZATION PACKAGE, VERSION 2 : 3/27/2014 - INPUT READ FROM MEMPATH: __INPUT__/CA/DIS                                  


 DSP-- DISPERSION PACKAGE, VERSION 1, 1/24/2018 INPUT READ FROM MEMPATH: __INPUT__/CA/DSP                                  


 Setting Discretization Options
    Model length unit [0=UND, 1=FEET, 2=METERS, 3=CENTIMETERS] set as 2
 End Setting Discretization Options

 Setting Discretization Dimensions
    NLAY = 10
    NROW = 1
    NCOL = 25
 End Setting Discretization Dimensions

 Setting Discretization Griddata
    DELR set from input file
    DELC set from input file
    TOP set from input file
    BOTM set from input file
    IDOMAIN set from input file
 End Setting Discretization Griddata


 FMI -- FLOW MODEL INTERFACE,' VERSION 2, 8/17/2023
  FLOWS PROVIDED BY A GWF MODEL IN THIS SIMULATION

 ADV-- ADVECTION PACKAGE, VERSION 1, 8/25/2017 INPUT READ FROM UNIT 12873


 # File generated by Flopy version 3.5.0.dev0 on 07/04/2024 at 16:27:57.
 PROCESSING ADVECTION OPTIONS
    ADVECTION WEIGHTING SCHEME HAS BEEN SET TO: TVD
 END OF ADVECTION OPTIONS
 Setting DSP Options
    XT3D formulation [0=INACTIVE, 1=ACTIVE, 3=ACTIVE RHS] set to: 0
 End Setting DSP Options

 Setting DSP Griddata
    ALH set from input file
    ATH1 set from input file
    ATV set from input file
 End Setting DSP Griddata


 CNC   -- CNC PACKAGE, VERSION 8, 2/22/2014 INPUT READ FROM UNIT 12907
 # File generated by Flopy version 3.5.0.dev0 on 07/04/2024 at 16:27:57.

 PROCESSING CNC OPTIONS
    CNC FLOWS WILL BE PRINTED TO LISTING FILE.
    FLOWS WILL BE SAVED TO BUDGET FILE SPECIFIED IN OUTPUT CONTROL
 END OF CNC OPTIONS

 PROCESSING CNC DIMENSIONS
    MAXBOUND =       7
 END OF CNC DIMENSIONS

 IC -- INITIAL CONDITIONS PACKAGE, VERSION 8, 3/28/2015 INPUT READ FROM UNIT 12871
 # File generated by Flopy version 3.5.0.dev0 on 07/04/2024 at 16:27:57.
 PROCESSING GRIDDATA

 OPENED Ca.ic_strt_layer1.txt
 FILE TYPE:OPEN/CLOSE   UNIT ****   STATUS:OLD                 
 FORMAT:FORMATTED              ACCESS:SEQUENTIAL          
 ACTION:READ                


 OPENED Ca.ic_strt_layer2.txt
 FILE TYPE:OPEN/CLOSE   UNIT ****   STATUS:OLD                 
 FORMAT:FORMATTED              ACCESS:SEQUENTIAL          
 ACTION:READ                


 OPENED Ca.ic_strt_layer3.txt
 FILE TYPE:OPEN/CLOSE   UNIT ****   STATUS:OLD                 
 FORMAT:FORMATTED              ACCESS:SEQUENTIAL          
 ACTION:READ                


 OPENED Ca.ic_strt_layer4.txt
 FILE TYPE:OPEN/CLOSE   UNIT ****   STATUS:OLD                 
 FORMAT:FORMATTED              ACCESS:SEQUENTIAL          
 ACTION:READ                


 OPENED Ca.ic_strt_layer5.txt
 FILE TYPE:OPEN/CLOSE   UNIT ****   STATUS:OLD                 
 FORMAT:FORMATTED              ACCESS:SEQUENTIAL          
 ACTION:READ                


 OPENED Ca.ic_strt_layer6.txt
 FILE TYPE:OPEN/CLOSE   UNIT ****   STATUS:OLD                 
 FORMAT:FORMATTED              ACCESS:SEQUENTIAL          
 ACTION:READ                


 OPENED Ca.ic_strt_layer7.txt
 FILE TYPE:OPEN/CLOSE   UNIT ****   STATUS:OLD                 
 FORMAT:FORMATTED              ACCESS:SEQUENTIAL          
 ACTION:READ                


 OPENED Ca.ic_strt_layer8.txt
 FILE TYPE:OPEN/CLOSE   UNIT ****   STATUS:OLD                 
 FORMAT:FORMATTED              ACCESS:SEQUENTIAL          
 ACTION:READ                


 OPENED Ca.ic_strt_layer9.txt
 FILE TYPE:OPEN/CLOSE   UNIT ****   STATUS:OLD                 
 FORMAT:FORMATTED              ACCESS:SEQUENTIAL          
 ACTION:READ                


 OPENED Ca.ic_strt_layer10.txt
 FILE TYPE:OPEN/CLOSE   UNIT ****   STATUS:OLD                 
 FORMAT:FORMATTED              ACCESS:SEQUENTIAL          
 ACTION:READ                

 END PROCESSING GRIDDATA

 MST -- MOBILE STORAGE AND TRANSFER PACKAGE, VERSION 1, 7/29/2020 INPUT READ FROM UNIT 12872


 # File generated by Flopy version 3.5.0.dev0 on 07/04/2024 at 16:27:57.
 PROCESSING MOBILE STORAGE AND TRANSFER OPTIONS
 END OF MOBILE STORAGE AND TRANSFER OPTIONS
 PROCESSING GRIDDATA

 OPENED Ca.mst_porosity.txt
 FILE TYPE:OPEN/CLOSE   UNIT ****   STATUS:OLD                 
 FORMAT:FORMATTED              ACCESS:SEQUENTIAL          
 ACTION:READ                

 END PROCESSING GRIDDATA

 SSM -- SOURCE-SINK MIXING PACKAGE, VERSION 1, 8/25/2017 INPUT READ FROM UNIT 12905


 # File generated by Flopy version 3.5.0.dev0 on 07/04/2024 at 16:27:57.
 PROCESSING SSM OPTIONS
    SSM FLOW INFORMATION WILL BE PRINTED TO LISTING FILE WHENEVER ICBCFL IS NOT ZERO.
    CELL-BY-CELL FLOW INFORMATION WILL BE SAVED TO BINARY FILE WHENEVER ICBCFL IS NOT ZERO.
 END OF SSM OPTIONS

 OPENED Ca.ssm_sources.txt
 FILE TYPE:OPEN/CLOSE   UNIT ****   STATUS:OLD                 
 FORMAT:FORMATTED              ACCESS:SEQUENTIAL          
 ACTION:READ                

 PROCESSING SOURCES
 AUX SOURCE DETECTED.
    USING AUX COLUMN 6 IN PACKAGE CHDTAIL
 END PROCESSING SOURCES
 OPTIONAL FILEINPUT BLOCK NOT FOUND.  CONTINUING.
      THE LAST TIME STEP WILL BE PRINTED
      THE LAST TIME STEP WILL BE PRINTED
 # File generated by Flopy version 3.5.0.dev0 on 07/04/2024 at 16:27:57.

 PROCESSING OC OPTIONS

    BUDGET INFORMATION WILL BE WRITTEN TO:
      UNIT NUMBER: 13522
      FILE NAME: Ca.cbb

 OPENED Ca.cbb
 FILE TYPE:DATA(BINARY)   UNIT ****   STATUS:REPLACE             
 FORMAT:UNFORMATTED            ACCESS:STREAM              
 ACTION:READWRITE           

    CONCENTRATION INFORMATION WILL BE WRITTEN TO:
      UNIT NUMBER: 13523
      FILE NAME: Ca.ucn

 OPENED Ca.ucn
 FILE TYPE:DATA(BINARY)   UNIT ****   STATUS:REPLACE             
 FORMAT:UNFORMATTED            ACCESS:STREAM              
 ACTION:READWRITE           

 END OF OC OPTIONS

start timestep kper="1" kstp="1" mode="normal"


 BEGIN READING OUTPUT CONTROL FOR STRESS PERIOD 1
      ALL TIME STEPS WILL BE SAVED
      ALL TIME STEPS WILL BE PRINTED

 END READING OUTPUT CONTROL FOR STRESS PERIOD 1

 OPENED Ca.cnc_stress_period_data_1.txt
 FILE TYPE:OPEN/CLOSE   UNIT ****   STATUS:OLD                 
 FORMAT:FORMATTED              ACCESS:SEQUENTIAL          
 ACTION:READ                

1
  CONCENTRATION IN LAYER   1 AT END OF TIME STEP   1 IN STRESS PERIOD    1
  ---------------------------------------------------------------------------

                1               2               3               4               5               6               7               8               9              10
               11              12              13              14              15              16              17              18              19              20
               21              22              23              24              25
 ................................................................................................................................................................
   1  7.699514222     7.134609642     6.953136487     6.928587188     6.925983884     6.925716781     6.925688958     6.925686018     6.925685760     6.925685769    
      6.925685773     6.925685747     6.925685703     6.925685678     6.925685681     6.925685688     6.925685686     6.925685679     6.925685672     6.925685673    
      6.925685680     6.925685690     6.925685700     6.925685713     6.925685719    
1
  CONCENTRATION IN LAYER   2 AT END OF TIME STEP   1 IN STRESS PERIOD    1
  ---------------------------------------------------------------------------

                1               2               3               4               5               6               7               8               9              10
               11              12              13              14              15              16              17              18              19              20
               21              22              23              24              25
 ................................................................................................................................................................
   1  7.639663416     7.110577738     6.949950268     6.928333289     6.925965372     6.925715342     6.925688825     6.925685977     6.925685767     6.925685808    
      6.925685814     6.925685759     6.925685678     6.925685640     6.925685648     6.925685662     6.925685658     6.925685644     6.925685633     6.925685637    
      6.925685651     6.925685669     6.925685687     6.925685710     6.925685718    
1
  CONCENTRATION IN LAYER   3 AT END OF TIME STEP   1 IN STRESS PERIOD    1
  ---------------------------------------------------------------------------

                1               2               3               4               5               6               7               8               9              10
               11              12              13              14              15              16              17              18              19              20
               21              22              23              24              25
 ................................................................................................................................................................
   1  7.452485758     7.055750437     6.944342462     6.927925882     6.925934332     6.925712741     6.925688574     6.925685904     6.925685778     6.925685872    
      6.925685881     6.925685778     6.925685638     6.925685579     6.925685598     6.925685623     6.925685615     6.925685590     6.925685573     6.925685581    
      6.925685606     6.925685638     6.925685668     6.925685705     6.925685718    
1
  CONCENTRATION IN LAYER   4 AT END OF TIME STEP   1 IN STRESS PERIOD    1
  ---------------------------------------------------------------------------

                1               2               3               4               5               6               7               8               9              10
               11              12              13              14              15              16              17              18              19              20
               21              22              23              24              25
 ................................................................................................................................................................
   1  6.925685720     6.971415193     6.938785674     6.927527514     6.925897564     6.925709312     6.925688234     6.925685826     6.925685785     6.925685931    
      6.925685943     6.925685797     6.925685604     6.925685530     6.925685560     6.925685598     6.925685585     6.925685548     6.925685523     6.925685534    
      6.925685568     6.925685612     6.925685650     6.925685698     6.925685717    
1
  CONCENTRATION IN LAYER   5 AT END OF TIME STEP   1 IN STRESS PERIOD    1
  ---------------------------------------------------------------------------

                1               2               3               4               5               6               7               8               9              10
               11              12              13              14              15              16              17              18              19              20
               21              22              23              24              25
 ................................................................................................................................................................
   1  6.925685720     6.941822494     6.932647156     6.926996349     6.925854616     6.925705417     6.925687851     6.925685764     6.925685784     6.925685967    
      6.925685980     6.925685810     6.925685588     6.925685506     6.925685544     6.925685589     6.925685574     6.925685529     6.925685498     6.925685510    
      6.925685547     6.925685596     6.925685638     6.925685693     6.925685716    
1
  CONCENTRATION IN LAYER   6 AT END OF TIME STEP   1 IN STRESS PERIOD    1
  ---------------------------------------------------------------------------

                1               2               3               4               5               6               7               8               9              10
               11              12              13              14              15              16              17              18              19              20
               21              22              23              24              25
 ................................................................................................................................................................
   1  6.925685720     6.931400868     6.928967809     6.926508154     6.925810211     6.925701388     6.925687465     6.925685724     6.925685777     6.925685979    
      6.925685992     6.925685816     6.925685586     6.925685503     6.925685544     6.925685591     6.925685575     6.925685526     6.925685492     6.925685504    
      6.925685542     6.925685592     6.925685634     6.925685690     6.925685716    
1
  CONCENTRATION IN LAYER   7 AT END OF TIME STEP   1 IN STRESS PERIOD    1
  ---------------------------------------------------------------------------

                1               2               3               4               5               6               7               8               9              10
               11              12              13              14              15              16              17              18              19              20
               21              22              23              24              25
 ................................................................................................................................................................
   1  6.925685720     6.927718000     6.927132971     6.926155398     6.925771123     6.925697646     6.925687112     6.925685702     6.925685770     6.925685971    
      6.925685984     6.925685814     6.925685593     6.925685513     6.925685552     6.925685598     6.925685582     6.925685535     6.925685501     6.925685512    
      6.925685548     6.925685595     6.925685635     6.925685690     6.925685716    
1
  CONCENTRATION IN LAYER   8 AT END OF TIME STEP   1 IN STRESS PERIOD    1
  ---------------------------------------------------------------------------

                1               2               3               4               5               6               7               8               9              10
               11              12              13              14              15              16              17              18              19              20
               21              22              23              24              25
 ................................................................................................................................................................
   1  6.925685720     6.926413882     6.926300544     6.925937999     6.925741502     6.925694570     6.925686823     6.925685696     6.925685764     6.925685947    
      6.925685958     6.925685806     6.925685607     6.925685533     6.925685568     6.925685609     6.925685596     6.925685553     6.925685522     6.925685531    
      6.925685563     6.925685606     6.925685642     6.925685692     6.925685716    
1
  CONCENTRATION IN LAYER   9 AT END OF TIME STEP   1 IN STRESS PERIOD    1
  ---------------------------------------------------------------------------

                1               2               3               4               5               6               7               8               9              10
               11              12              13              14              15              16              17              18              19              20
               21              22              23              24              25
 ................................................................................................................................................................
   1  6.925685720     6.925956037     6.925950167     6.925821007     6.925722351     6.925692407     6.925686628     6.925685710     6.925685758     6.925685901    
      6.925685911     6.925685791     6.925685631     6.925685569     6.925685596     6.925685628     6.925685618     6.925685585     6.925685559     6.925685566    
      6.925685591     6.925685626     6.925685656     6.925685696     6.925685716    
1
  CONCENTRATION IN LAYER  10 AT END OF TIME STEP   1 IN STRESS PERIOD    1
  ---------------------------------------------------------------------------

                1               2               3               4               5               6               7               8               9              10
               11              12              13              14              15              16              17              18              19              20
               21              22              23              24              25
 ................................................................................................................................................................
   1  6.925685720     6.925810083     6.925826709     6.925770672     6.925712975     6.925691262     6.925686549     6.925685756     6.925685745     6.925685808    
      6.925685821     6.925685767     6.925685681     6.925685640     6.925685650     6.925685668     6.925685665     6.925685649     6.925685634     6.925685636    
      6.925685648     6.925685666     6.925685683     6.925685704     6.925685717    

 CONCENTRATION WILL BE SAVED ON UNIT **** AT END OF TIME STEP    1, STRESS PERIOD    1



         TIME SUMMARY AT END OF TIME STEP    1 IN STRESS PERIOD    1
                    SECONDS     MINUTES      HOURS       DAYS        YEARS
                    -----------------------------------------------------------
   TIME STEP LENGTH 1.72800E+06  28800.      480.00      20.000     5.47570E-02
 STRESS PERIOD TIME 1.72800E+06  28800.      480.00      20.000     5.47570E-02
         TOTAL TIME 1.72800E+06  28800.      480.00      20.000     5.47570E-02


end timestep


start timestep kper="1" kstp="2" mode="normal"

1
  CONCENTRATION IN LAYER   1 AT END OF TIME STEP   2 IN STRESS PERIOD    1
  ---------------------------------------------------------------------------

                1               2               3               4               5               6               7               8               9              10
               11              12              13              14              15              16              17              18              19              20
               21              22              23              24              25
 ................................................................................................................................................................
   1  8.237006930     7.416279764     7.021525948     6.939709427     6.927535383     6.925919911     6.925714786     6.925689244     6.925686180     6.925685815    
      6.925685760     6.925685737     6.925685705     6.925685673     6.925685654     6.925685644     6.925685636     6.925685630     6.925685627     6.925685630    
      6.925685640     6.925685655     6.925685674     6.925685699     6.925685715    
1
  CONCENTRATION IN LAYER   2 AT END OF TIME STEP   2 IN STRESS PERIOD    1
  ---------------------------------------------------------------------------

                1               2               3               4               5               6               7               8               9              10
               11              12              13              14              15              16              17              18              19              20
               21              22              23              24              25
 ................................................................................................................................................................
   1  8.107031879     7.354440287     7.010420847     6.938538371     6.927428136     6.925909572     6.925713744     6.925689172     6.925686200     6.925685815    
      6.925685744     6.925685725     6.925685695     6.925685659     6.925685629     6.925685607     6.925685594     6.925685589     6.925685589     6.925685596    
      6.925685610     6.925685632     6.925685658     6.925685694     6.925685714    
1
  CONCENTRATION IN LAYER   3 AT END OF TIME STEP   2 IN STRESS PERIOD    1
  ---------------------------------------------------------------------------

                1               2               3               4               5               6               7               8               9              10
               11              12              13              14              15              16              17              18              19              20
               21              22              23              24              25
 ................................................................................................................................................................
   1  7.751425171     7.224737532     6.991257227     6.936629417     6.927244506     6.925890706     6.925711779     6.925689027     6.925686227     6.925685813    
      6.925685718     6.925685706     6.925685682     6.925685639     6.925685590     6.925685550     6.925685528     6.925685525     6.925685530     6.925685543    
      6.925685565     6.925685596     6.925685633     6.925685685     6.925685713    
1
  CONCENTRATION IN LAYER   4 AT END OF TIME STEP   2 IN STRESS PERIOD    1
  ---------------------------------------------------------------------------

                1               2               3               4               5               6               7               8               9              10
               11              12              13              14              15              16              17              18              19              20
               21              22              23              24              25
 ................................................................................................................................................................
   1  6.925685720     7.046544447     6.971328393     6.934611887     6.927019958     6.925865772     6.925709095     6.925688795     6.925686237     6.925685811    
      6.925685699     6.925685694     6.925685675     6.925685625     6.925685558     6.925685503     6.925685472     6.925685471     6.925685479     6.925685497    
      6.925685523     6.925685563     6.925685608     6.925685675     6.925685711    
1
  CONCENTRATION IN LAYER   5 AT END OF TIME STEP   2 IN STRESS PERIOD    1
  ---------------------------------------------------------------------------

                1               2               3               4               5               6               7               8               9              10
               11              12              13              14              15              16              17              18              19              20
               21              22              23              24              25
 ................................................................................................................................................................
   1  6.925685720     6.973929298     6.951357082     6.932141177     6.926760433     6.925837425     6.925705986     6.925688490     6.925686221     6.925685811    
      6.925685693     6.925685693     6.925685674     6.925685619     6.925685541     6.925685477     6.925685442     6.925685441     6.925685450     6.925685469    
      6.925685498     6.925685541     6.925685591     6.925685666     6.925685709    
1
  CONCENTRATION IN LAYER   6 AT END OF TIME STEP   2 IN STRESS PERIOD    1
  ---------------------------------------------------------------------------

                1               2               3               4               5               6               7               8               9              10
               11              12              13              14              15              16              17              18              19              20
               21              22              23              24              25
 ................................................................................................................................................................
   1  6.925685720     6.944770752     6.938654393     6.929867485     6.926492170     6.925808011     6.925702753     6.925688150     6.925686186     6.925685810    
      6.925685695     6.925685696     6.925685677     6.925685619     6.925685539     6.925685472     6.925685436     6.925685434     6.925685442     6.925685462    
      6.925685491     6.925685534     6.925685584     6.925685661     6.925685708    
1
  CONCENTRATION IN LAYER   7 AT END OF TIME STEP   2 IN STRESS PERIOD    1
  ---------------------------------------------------------------------------

                1               2               3               4               5               6               7               8               9              10
               11              12              13              14              15              16              17              18              19              20
               21              22              23              24              25
 ................................................................................................................................................................
   1  6.925685720     6.933189258     6.931824724     6.928172645     6.926252361     6.925780406     6.925699702     6.925687815     6.925686141     6.925685806    
      6.925685699     6.925685700     6.925685681     6.925685625     6.925685547     6.925685483     6.925685448     6.925685445     6.925685452     6.925685471    
      6.925685497     6.925685538     6.925685586     6.925685661     6.925685708    
1
  CONCENTRATION IN LAYER   8 AT END OF TIME STEP   2 IN STRESS PERIOD    1
  ---------------------------------------------------------------------------

                1               2               3               4               5               6               7               8               9              10
               11              12              13              14              15              16              17              18              19              20
               21              22              23              24              25
 ................................................................................................................................................................
   1  6.925685720     6.928633765     6.928489638     6.927084814     6.926066310     6.925757405     6.925697128     6.925687520     6.925686093     6.925685798    
      6.925685703     6.925685704     6.925685686     6.925685635     6.925685564     6.925685506     6.925685474     6.925685470     6.925685476     6.925685493    
      6.925685516     6.925685554     6.925685597     6.925685665     6.925685708    
1
  CONCENTRATION IN LAYER   9 AT END OF TIME STEP   2 IN STRESS PERIOD    1
  ---------------------------------------------------------------------------

                1               2               3               4               5               6               7               8               9              10
               11              12              13              14              15              16              17              18              19              20
               21              22              23              24              25
 ................................................................................................................................................................
   1  6.925685720     6.926873251     6.927003488     6.926470093     6.925942648     6.925741098     6.925695265     6.925687279     6.925686041     6.925685791    
      6.925685715     6.925685712     6.925685693     6.925685646     6.925685588     6.925685542     6.925685516     6.925685512     6.925685516     6.925685529    
      6.925685548     6.925685579     6.925685615     6.925685672     6.925685709    
1
  CONCENTRATION IN LAYER  10 AT END OF TIME STEP   2 IN STRESS PERIOD    1
  ---------------------------------------------------------------------------

                1               2               3               4               5               6               7               8               9              10
               11              12              13              14              15              16              17              18              19              20
               21              22              23              24              25
 ................................................................................................................................................................
   1  6.925685720     6.926275505     6.926446838     6.926200643     6.925881807     6.925732715     6.925694247     6.925687076     6.925685975     6.925685807    
      6.925685765     6.925685740     6.925685696     6.925685650     6.925685619     6.925685601     6.925685585     6.925685576     6.925685571     6.925685577    
      6.925685591     6.925685615     6.925685642     6.925685681     6.925685710    

 CONCENTRATION WILL BE SAVED ON UNIT **** AT END OF TIME STEP    2, STRESS PERIOD    1



         TIME SUMMARY AT END OF TIME STEP    2 IN STRESS PERIOD    1
                    SECONDS     MINUTES      HOURS       DAYS        YEARS
                    -----------------------------------------------------------
   TIME STEP LENGTH 1.72800E+06  28800.      480.00      20.000     5.47570E-02
 STRESS PERIOD TIME 3.45600E+06  57600.      960.00      40.000     0.10951    
         TOTAL TIME 3.45600E+06  57600.      960.00      40.000     0.10951    


end timestep


start timestep kper="1" kstp="3" mode="normal"

1
  CONCENTRATION IN LAYER   1 AT END OF TIME STEP   3 IN STRESS PERIOD    1
  ---------------------------------------------------------------------------

                1               2               3               4               5               6               7               8               9              10
               11              12              13              14              15              16              17              18              19              20
               21              22              23              24              25
 ................................................................................................................................................................
   1  8.593572125     7.692876685     7.126876597     6.964500792     6.932112079     6.926664031     6.925827009     6.925705420     6.925688407     6.925686118    
      6.925685800     6.925685741     6.925685700     6.925685659     6.925685628     6.925685608     6.925685595     6.925685587     6.925685584     6.925685588    
      6.925685600     6.925685621     6.925685647     6.925685681     6.925685708    
1
  CONCENTRATION IN LAYER   2 AT END OF TIME STEP   3 IN STRESS PERIOD    1
  ---------------------------------------------------------------------------

                1               2               3               4               5               6               7               8               9              10
               11              12              13              14              15              16              17              18              19              20
               21              22              23              24              25
 ................................................................................................................................................................
   1  8.405757259     7.592230744     7.103995499     6.961400762     6.931760376     6.926623483     6.925822140     6.925704843     6.925688350     6.925686112    
      6.925685794     6.925685734     6.925685688     6.925685638     6.925685598     6.925685573     6.925685557     6.925685550     6.925685548     6.925685555    
      6.925685572     6.925685599     6.925685631     6.925685675     6.925685706    
1
  CONCENTRATION IN LAYER   3 AT END OF TIME STEP   3 IN STRESS PERIOD    1
  ---------------------------------------------------------------------------

                1               2               3               4               5               6               7               8               9              10
               11              12              13              14              15              16              17              18              19              20
               21              22              23              24              25
 ................................................................................................................................................................
   1  7.929140300     7.391336628     7.064745262     6.956252155     6.931146598     6.926548720     6.925812936     6.925703742     6.925688240     6.925686098    
      6.925685785     6.925685724     6.925685669     6.925685606     6.925685553     6.925685519     6.925685500     6.925685492     6.925685493     6.925685503    
      6.925685526     6.925685563     6.925685607     6.925685664     6.925685704    
1
  CONCENTRATION IN LAYER   4 AT END OF TIME STEP   3 IN STRESS PERIOD    1
  ---------------------------------------------------------------------------

                1               2               3               4               5               6               7               8               9              10
               11              12              13              14              15              16              17              18              19              20
               21              22              23              24              25
 ................................................................................................................................................................
   1  6.925685720     7.131934904     7.022385494     6.950514301     6.930377836     6.926448840     6.925800381     6.925702224     6.925688080     6.925686082    
      6.925685779     6.925685718     6.925685655     6.925685580     6.925685514     6.925685472     6.925685449     6.925685441     6.925685442     6.925685455    
      6.925685484     6.925685529     6.925685582     6.925685652     6.925685701    
1
  CONCENTRATION IN LAYER   5 AT END OF TIME STEP   3 IN STRESS PERIOD    1
  ---------------------------------------------------------------------------

                1               2               3               4               5               6               7               8               9              10
               11              12              13              14              15              16              17              18              19              20
               21              22              23              24              25
 ................................................................................................................................................................
   1  6.925685720     7.015560883     6.982321740     6.943850563     6.929492991     6.926334196     6.925785828     6.925700443     6.925687884     6.925686063    
      6.925685777     6.925685717     6.925685649     6.925685567     6.925685493     6.925685445     6.925685418     6.925685409     6.925685410     6.925685424    
      6.925685456     6.925685506     6.925685564     6.925685643     6.925685699    
1
  CONCENTRATION IN LAYER   6 AT END OF TIME STEP   3 IN STRESS PERIOD    1
  ---------------------------------------------------------------------------

                1               2               3               4               5               6               7               8               9              10
               11              12              13              14              15              16              17              18              19              20
               21              22              23              24              25
 ................................................................................................................................................................
   1  6.925685720     6.964320831     6.955827465     6.937741969     6.928580658     6.926214443     6.925770662     6.925698579     6.925687668     6.925686041    
      6.925685778     6.925685720     6.925685651     6.925685565     6.925685488     6.925685438     6.925685410     6.925685400     6.925685400     6.925685414    
      6.925685446     6.925685497     6.925685556     6.925685637     6.925685697    
1
  CONCENTRATION IN LAYER   7 AT END OF TIME STEP   3 IN STRESS PERIOD    1
  ---------------------------------------------------------------------------

                1               2               3               4               5               6               7               8               9              10
               11              12              13              14              15              16              17              18              19              20
               21              22              23              24              25
 ................................................................................................................................................................
   1  6.925685720     6.942107154     6.940789906     6.933093379     6.927757651     6.926101046     6.925756296     6.925696815     6.925687456     6.925686018    
      6.925685778     6.925685723     6.925685656     6.925685572     6.925685497     6.925685448     6.925685420     6.925685410     6.925685409     6.925685422    
      6.925685452     6.925685501     6.925685558     6.925685637     6.925685697    
1
  CONCENTRATION IN LAYER   8 AT END OF TIME STEP   3 IN STRESS PERIOD    1
  ---------------------------------------------------------------------------

                1               2               3               4               5               6               7               8               9              10
               11              12              13              14              15              16              17              18              19              20
               21              22              23              24              25
 ................................................................................................................................................................
   1  6.925685720     6.932598534     6.933071298     6.929999910     6.927106890     6.926005481     6.925744124     6.925695320     6.925687268     6.925685995    
      6.925685778     6.925685727     6.925685664     6.925685585     6.925685516     6.925685472     6.925685446     6.925685436     6.925685434     6.925685445    
      6.925685472     6.925685517     6.925685568     6.925685641     6.925685697    
1
  CONCENTRATION IN LAYER   9 AT END OF TIME STEP   3 IN STRESS PERIOD    1
  ---------------------------------------------------------------------------

                1               2               3               4               5               6               7               8               9              10
               11              12              13              14              15              16              17              18              19              20
               21              22              23              24              25
 ................................................................................................................................................................
   1  6.925685720     6.928661645     6.929430358     6.928203666     6.926667938     6.925937008     6.925735344     6.925694235     6.925687126     6.925685977    
      6.925685782     6.925685733     6.925685675     6.925685604     6.925685545     6.925685507     6.925685485     6.925685475     6.925685472     6.925685480    
      6.925685503     6.925685541     6.925685586     6.925685648     6.925685699    
1
  CONCENTRATION IN LAYER  10 AT END OF TIME STEP   3 IN STRESS PERIOD    1
  ---------------------------------------------------------------------------

                1               2               3               4               5               6               7               8               9              10
               11              12              13              14              15              16              17              18              19              20
               21              22              23              24              25
 ................................................................................................................................................................
   1  6.925685720     6.927261664     6.927992151     6.927405758     6.926450625     6.925901528     6.925730765     6.925693663     6.925687051     6.925685972    
      6.925685788     6.925685741     6.925685691     6.925685633     6.925685585     6.925685553     6.925685533     6.925685522     6.925685518     6.925685524    
      6.925685540     6.925685570     6.925685606     6.925685656     6.925685699    

 CONCENTRATION WILL BE SAVED ON UNIT **** AT END OF TIME STEP    3, STRESS PERIOD    1



         TIME SUMMARY AT END OF TIME STEP    3 IN STRESS PERIOD    1
                    SECONDS     MINUTES      HOURS       DAYS        YEARS
                    -----------------------------------------------------------
   TIME STEP LENGTH 1.72800E+06  28800.      480.00      20.000     5.47570E-02
 STRESS PERIOD TIME 5.18400E+06  86400.      1440.0      60.000     0.16427    
         TOTAL TIME 5.18400E+06  86400.      1440.0      60.000     0.16427    


end timestep


start timestep kper="1" kstp="4" mode="normal"

1
  CONCENTRATION IN LAYER   1 AT END OF TIME STEP   4 IN STRESS PERIOD    1
  ---------------------------------------------------------------------------

                1               2               3               4               5               6               7               8               9              10
               11              12              13              14              15              16              17              18              19              20
               21              22              23              24              25
 ................................................................................................................................................................
   1  8.829834357     7.931948628     7.255741277     7.006151313     6.942061265     6.928650035     6.926180792     6.925763848     6.925697612     6.925687480    
      6.925685992     6.925685763     6.925685697     6.925685649     6.925685609     6.925685580     6.925685560     6.925685549     6.925685546     6.925685551    
      6.925685565     6.925685588     6.925685619     6.925685660     6.925685698    
1
  CONCENTRATION IN LAYER   2 AT END OF TIME STEP   4 IN STRESS PERIOD    1
  ---------------------------------------------------------------------------

                1               2               3               4               5               6               7               8               9              10
               11              12              13              14              15              16              17              18              19              20
               21              22              23              24              25
 ................................................................................................................................................................
   1  8.599854954     7.798012998     7.219126585     6.999973181     6.941204458     6.928533155     6.926164570     6.925761634     6.925697326     6.925687444    
      6.925685980     6.925685750     6.925685682     6.925685630     6.925685584     6.925685549     6.925685527     6.925685515     6.925685514     6.925685521    
      6.925685539     6.925685568     6.925685605     6.925685654     6.925685696    
1
  CONCENTRATION IN LAYER   3 AT END OF TIME STEP   4 IN STRESS PERIOD    1
  ---------------------------------------------------------------------------

                1               2               3               4               5               6               7               8               9              10
               11              12              13              14              15              16              17              18              19              20
               21              22              23              24              25
 ................................................................................................................................................................
   1  8.040980341     7.538493807     7.156319970     6.989540812     6.939686496     6.928315957     6.926133824     6.925757419     6.925696779     6.925687378    
      6.925685958     6.925685732     6.925685659     6.925685601     6.925685546     6.925685503     6.925685474     6.925685462     6.925685464     6.925685475    
      6.925685499     6.925685536     6.925685582     6.925685643     6.925685693    
1
  CONCENTRATION IN LAYER   4 AT END OF TIME STEP   4 IN STRESS PERIOD    1
  ---------------------------------------------------------------------------

                1               2               3               4               5               6               7               8               9              10
               11              12              13              14              15              16              17              18              19              20
               21              22              23              24              25
 ................................................................................................................................................................
   1  6.925685720     7.215176819     7.086671798     6.977500508     6.937753512     6.928023519     6.926091722     6.925751624     6.925696023     6.925687289    
      6.925685937     6.925685717     6.925685641     6.925685576     6.925685512     6.925685460     6.925685426     6.925685413     6.925685416     6.925685430    
      6.925685459     6.925685504     6.925685558     6.925685630     6.925685689    
1
  CONCENTRATION IN LAYER   5 AT END OF TIME STEP   4 IN STRESS PERIOD    1
  ---------------------------------------------------------------------------

                1               2               3               4               5               6               7               8               9              10
               11              12              13              14              15              16              17              18              19              20
               21              22              23              24              25
 ................................................................................................................................................................
   1  6.925685720     7.060280582     7.022932998     6.963968798     6.935533524     6.927685202     6.926042632     6.925744839     6.925695129     6.925687184    
      6.925685920     6.925685709     6.925685632     6.925685563     6.925685492     6.925685434     6.925685396     6.925685381     6.925685385     6.925685400    
      6.925685432     6.925685481     6.925685540     6.925685620     6.925685686    
1
  CONCENTRATION IN LAYER   6 AT END OF TIME STEP   4 IN STRESS PERIOD    1
  ---------------------------------------------------------------------------

                1               2               3               4               5               6               7               8               9              10
               11              12              13              14              15              16              17              18              19              20
               21              22              23              24              25
 ................................................................................................................................................................
   1  6.925685720     6.987344013     6.979605525     6.951607627     6.933250299     6.927329905     6.925991185     6.925737742     6.925694188     6.925687071    
      6.925685907     6.925685708     6.925685632     6.925685560     6.925685486     6.925685426     6.925685386     6.925685370     6.925685373     6.925685389    
      6.925685421     6.925685471     6.925685531     6.925685614     6.925685684    
1
  CONCENTRATION IN LAYER   7 AT END OF TIME STEP   4 IN STRESS PERIOD    1
  ---------------------------------------------------------------------------

                1               2               3               4               5               6               7               8               9              10
               11              12              13              14              15              16              17              18              19              20
               21              22              23              24              25
 ................................................................................................................................................................
   1  6.925685720     6.953498791     6.954067503     6.942035415     6.931175658     6.926991321     6.925942203     6.925731030     6.925693294     6.925686961    
      6.925685898     6.925685711     6.925685637     6.925685567     6.925685494     6.925685434     6.925685395     6.925685379     6.925685381     6.925685396    
      6.925685426     6.925685474     6.925685532     6.925685613     6.925685683    
1
  CONCENTRATION IN LAYER   8 AT END OF TIME STEP   4 IN STRESS PERIOD    1
  ---------------------------------------------------------------------------

                1               2               3               4               5               6               7               8               9              10
               11              12              13              14              15              16              17              18              19              20
               21              22              23              24              25
 ................................................................................................................................................................
   1  6.925685720     6.938017863     6.940473103     6.935466227     6.929511863     6.926703931     6.925900517     6.925725362     6.925692535     6.925686865    
      6.925685893     6.925685718     6.925685647     6.925685579     6.925685511     6.925685455     6.925685419     6.925685403     6.925685404     6.925685416    
      6.925685444     6.925685488     6.925685542     6.925685617     6.925685684    
1
  CONCENTRATION IN LAYER   9 AT END OF TIME STEP   4 IN STRESS PERIOD    1
  ---------------------------------------------------------------------------

                1               2               3               4               5               6               7               8               9              10
               11              12              13              14              15              16              17              18              19              20
               21              22              23              24              25
 ................................................................................................................................................................
   1  6.925685720     6.931301380     6.933664536     6.931616278     6.928385948     6.926496822     6.925870313     6.925721281     6.925691985     6.925686795    
      6.925685894     6.925685728     6.925685661     6.925685598     6.925685536     6.925685486     6.925685453     6.925685438     6.925685437     6.925685447    
      6.925685470     6.925685509     6.925685557     6.925685623     6.925685685    
1
  CONCENTRATION IN LAYER  10 AT END OF TIME STEP   4 IN STRESS PERIOD    1
  ---------------------------------------------------------------------------

                1               2               3               4               5               6               7               8               9              10
               11              12              13              14              15              16              17              18              19              20
               21              22              23              24              25
 ................................................................................................................................................................
   1  6.925685720     6.928825269     6.930863376     6.929881360     6.927827125     6.926389146     6.925854534     6.925719151     6.925691695     6.925686762    
      6.925685904     6.925685746     6.925685681     6.925685622     6.925685565     6.925685522     6.925685493     6.925685478     6.925685474     6.925685481    
      6.925685499     6.925685532     6.925685574     6.925685630     6.925685686    

 CONCENTRATION WILL BE SAVED ON UNIT **** AT END OF TIME STEP    4, STRESS PERIOD    1



         TIME SUMMARY AT END OF TIME STEP    4 IN STRESS PERIOD    1
                    SECONDS     MINUTES      HOURS       DAYS        YEARS
                    -----------------------------------------------------------
   TIME STEP LENGTH 1.72800E+06  28800.      480.00      20.000     5.47570E-02
 STRESS PERIOD TIME 6.91200E+06 1.15200E+05  1920.0      80.000     0.21903    
         TOTAL TIME 6.91200E+06 1.15200E+05  1920.0      80.000     0.21903    


end timestep


start timestep kper="1" kstp="5" mode="normal"

1
  CONCENTRATION IN LAYER   1 AT END OF TIME STEP   5 IN STRESS PERIOD    1
  ---------------------------------------------------------------------------

                1               2               3               4               5               6               7               8               9              10
               11              12              13              14              15              16              17              18              19              20
               21              22              23              24              25
 ................................................................................................................................................................
   1  8.987136748     8.125405729     7.393235002     7.064518164     6.959710853     6.932931636     6.927076655     6.925933155     6.925727390     6.925692474    
      6.925686775     6.925685877     6.925685708     6.925685643     6.925685595     6.925685558     6.925685531     6.925685516     6.925685513     6.925685518    
      6.925685532     6.925685558     6.925685593     6.925685638     6.925685685    
1
  CONCENTRATION IN LAYER   2 AT END OF TIME STEP   5 IN STRESS PERIOD    1
  ---------------------------------------------------------------------------

                1               2               3               4               5               6               7               8               9              10
               11              12              13              14              15              16              17              18              19              20
               21              22              23              24              25
 ................................................................................................................................................................
   1  8.727897002     7.965418792     7.342715780     7.054221658     6.957992679     6.932656800     6.927033040     6.925926449     6.925726408     6.925692334    
      6.925686748     6.925685863     6.925685693     6.925685624     6.925685573     6.925685531     6.925685502     6.925685487     6.925685485     6.925685492    
      6.925685510     6.925685540     6.925685579     6.925685632     6.925685683    
1
  CONCENTRATION IN LAYER   3 AT END OF TIME STEP   5 IN STRESS PERIOD    1
  ---------------------------------------------------------------------------

                1               2               3               4               5               6               7               8               9              10
               11              12              13              14              15              16              17              18              19              20
               21              22              23              24              25
 ................................................................................................................................................................
   1  8.113825583     7.661004934     7.255851376     7.036602629     6.954914357     6.932143154     6.926950175     6.925913678     6.925724540     6.925692070    
      6.925686701     6.925685839     6.925685670     6.925685596     6.925685538     6.925685490     6.925685456     6.925685440     6.925685440     6.925685450    
      6.925685473     6.925685511     6.925685558     6.925685620     6.925685679    
1
  CONCENTRATION IN LAYER   4 AT END OF TIME STEP   5 IN STRESS PERIOD    1
  ---------------------------------------------------------------------------

                1               2               3               4               5               6               7               8               9              10
               11              12              13              14              15              16              17              18              19              20
               21              22              23              24              25
 ................................................................................................................................................................
   1  6.925685720     7.289858214     7.157577931     7.015793204     6.950949667     6.931447526     6.926836269     6.925896101     6.925721970     6.925691711    
      6.925686645     6.925685818     6.925685650     6.925685571     6.925685506     6.925685451     6.925685413     6.925685395     6.925685397     6.925685410    
      6.925685437     6.925685481     6.925685536     6.925685608     6.925685675    
1
  CONCENTRATION IN LAYER   5 AT END OF TIME STEP   5 IN STRESS PERIOD    1
  ---------------------------------------------------------------------------

                1               2               3               4               5               6               7               8               9              10
               11              12              13              14              15              16              17              18              19              20
               21              22              23              24              25
 ................................................................................................................................................................
   1  6.925685720     7.103515288     7.069281126     6.992879529     6.946400396     6.930637638     6.926702728     6.925875482     6.925718957     6.925691292    
      6.925686586     6.925685803     6.925685639     6.925685557     6.925685486     6.925685426     6.925685384     6.925685365     6.925685367     6.925685381    
      6.925685412     6.925685459     6.925685518     6.925685597     6.925685671    
1
  CONCENTRATION IN LAYER   6 AT END OF TIME STEP   5 IN STRESS PERIOD    1
  ---------------------------------------------------------------------------

                1               2               3               4               5               6               7               8               9              10
               11              12              13              14              15              16              17              18              19              20
               21              22              23              24              25
 ................................................................................................................................................................
   1  6.925685720     7.011200891     7.008083418     6.971965926     6.941721718     6.929783277     6.926562094     6.925853872     6.925715802     6.925690853    
      6.925686530     6.925685795     6.925685636     6.925685554     6.925685481     6.925685418     6.925685374     6.925685353     6.925685355     6.925685370    
      6.925685401     6.925685449     6.925685509     6.925685591     6.925685669    
1
  CONCENTRATION IN LAYER   7 AT END OF TIME STEP   5 IN STRESS PERIOD    1
  ---------------------------------------------------------------------------

                1               2               3               4               5               6               7               8               9              10
               11              12              13              14              15              16              17              18              19              20
               21              22              23              24              25
 ................................................................................................................................................................
   1  6.925685720     6.965844606     6.971372823     6.955359165     6.937429119     6.928965977     6.926427735     6.925833400     6.925712821     6.925690438    
      6.925686481     6.925685793     6.925685641     6.925685560     6.925685487     6.925685424     6.925685381     6.925685360     6.925685361     6.925685374    
      6.925685404     6.925685451     6.925685510     6.925685590     6.925685668    
1
  CONCENTRATION IN LAYER   8 AT END OF TIME STEP   5 IN STRESS PERIOD    1
  ---------------------------------------------------------------------------

                1               2               3               4               5               6               7               8               9              10
               11              12              13              14              15              16              17              18              19              20
               21              22              23              24              25
 ................................................................................................................................................................
   1  6.925685720     6.944277735     6.950712322     6.943945993     6.933992630     6.928270458     6.926312936     6.925816081     6.925710308     6.925690086    
      6.925686441     6.925685796     6.925685650     6.925685572     6.925685502     6.925685443     6.925685401     6.925685380     6.925685380     6.925685392    
      6.925685418     6.925685462     6.925685517     6.925685593     6.925685668    
1
  CONCENTRATION IN LAYER   9 AT END OF TIME STEP   5 IN STRESS PERIOD    1
  ---------------------------------------------------------------------------

                1               2               3               4               5               6               7               8               9              10
               11              12              13              14              15              16              17              18              19              20
               21              22              23              24              25
 ................................................................................................................................................................
   1  6.925685720     6.934572030     6.939891435     6.937156422     6.931665876     6.927768680     6.926229460     6.925803594     6.925708500     6.925689835    
      6.925686418     6.925685805     6.925685665     6.925685590     6.925685525     6.925685469     6.925685430     6.925685410     6.925685408     6.925685417    
      6.925685440     6.925685480     6.925685530     6.925685598     6.925685669    
1
  CONCENTRATION IN LAYER  10 AT END OF TIME STEP   5 IN STRESS PERIOD    1
  ---------------------------------------------------------------------------

                1               2               3               4               5               6               7               8               9              10
               11              12              13              14              15              16              17              18              19              20
               21              22              23              24              25
 ................................................................................................................................................................
   1  6.925685720     6.930890058     6.935302518     6.934052637     6.930508615     6.927507571     6.926185729     6.925797083     6.925707560     6.925689709    
      6.925686415     6.925685820     6.925685684     6.925685613     6.925685551     6.925685500     6.925685463     6.925685443     6.925685439     6.925685445    
      6.925685464     6.925685498     6.925685543     6.925685604     6.925685670    

 CONCENTRATION WILL BE SAVED ON UNIT **** AT END OF TIME STEP    5, STRESS PERIOD    1



         TIME SUMMARY AT END OF TIME STEP    5 IN STRESS PERIOD    1
                    SECONDS     MINUTES      HOURS       DAYS        YEARS
                    -----------------------------------------------------------
   TIME STEP LENGTH 1.72800E+06  28800.      480.00      20.000     5.47570E-02
 STRESS PERIOD TIME 8.64000E+06 1.44000E+05  2400.0      100.00     0.27379    
         TOTAL TIME 8.64000E+06 1.44000E+05  2400.0      100.00     0.27379    


end timestep


start timestep kper="1" kstp="6" mode="normal"

1
  CONCENTRATION IN LAYER   1 AT END OF TIME STEP   6 IN STRESS PERIOD    1
  ---------------------------------------------------------------------------

                1               2               3               4               5               6               7               8               9              10
               11              12              13              14              15              16              17              18              19              20
               21              22              23              24              25
 ................................................................................................................................................................
   1  9.092659966     8.276166469     7.527441519     7.136546525     6.986697832     6.940802717     6.929000964     6.926348114     6.925809159     6.925707552    
      6.925689424     6.925686310     6.925685774     6.925685646     6.925685585     6.925685541     6.925685509     6.925685489     6.925685484     6.925685488    
      6.925685503     6.925685529     6.925685566     6.925685615     6.925685670    
1
  CONCENTRATION IN LAYER   2 AT END OF TIME STEP   6 IN STRESS PERIOD    1
  ---------------------------------------------------------------------------

                1               2               3               4               5               6               7               8               9              10
               11              12              13              14              15              16              17              18              19              20
               21              22              23              24              25
 ................................................................................................................................................................
   1  8.813479171     8.096803848     7.464068009     7.121384569     6.983704880     6.940246321     6.928900629     6.926330891     6.925806372     6.925707122    
      6.925689352     6.925686289     6.925685758     6.925685629     6.925685564     6.925685517     6.925685483     6.925685463     6.925685459     6.925685465    
      6.925685483     6.925685513     6.925685554     6.925685609     6.925685667    
1
  CONCENTRATION IN LAYER   3 AT END OF TIME STEP   6 IN STRESS PERIOD    1
  ---------------------------------------------------------------------------

                1               2               3               4               5               6               7               8               9              10
               11              12              13              14              15              16              17              18              19              20
               21              22              23              24              25
 ................................................................................................................................................................
   1  8.162333268     7.759377789     7.354756874     7.095174383     6.978298086     6.939202086     6.928709626     6.926298070     6.925801070     6.925706307    
      6.925689221     6.925686254     6.925685733     6.925685601     6.925685532     6.925685480     6.925685442     6.925685421     6.925685420     6.925685428    
      6.925685450     6.925685487     6.925685535     6.925685598     6.925685664    
1
  CONCENTRATION IN LAYER   4 AT END OF TIME STEP   6 IN STRESS PERIOD    1
  ---------------------------------------------------------------------------

                1               2               3               4               5               6               7               8               9              10
               11              12              13              14              15              16              17              18              19              20
               21              22              23              24              25
 ................................................................................................................................................................
   1  6.925685720     7.353476851     7.229246242     7.063735361     6.971276945     6.937781481     6.928446302     6.926252830     6.925793780     6.925705193    
      6.925689048     6.925686217     6.925685710     6.925685576     6.925685502     6.925685445     6.925685403     6.925685380     6.925685381     6.925685392    
      6.925685418     6.925685460     6.925685514     6.925685586     6.925685659    
1
  CONCENTRATION IN LAYER   5 AT END OF TIME STEP   6 IN STRESS PERIOD    1
  ---------------------------------------------------------------------------

                1               2               3               4               5               6               7               8               9              10
               11              12              13              14              15              16              17              18              19              20
               21              22              23              24              25
 ................................................................................................................................................................
   1  6.925685720     7.142464710     7.117718100     7.029535369     6.963214173     6.936119258     6.928136376     6.926199651     6.925785235     6.925703890    
      6.925688854     6.925686183     6.925685695     6.925685561     6.925685483     6.925685422     6.925685377     6.925685352     6.925685353     6.925685365    
      6.925685394     6.925685439     6.925685498     6.925685575     6.925685655    
1
  CONCENTRATION IN LAYER   6 AT END OF TIME STEP   6 IN STRESS PERIOD    1
  ---------------------------------------------------------------------------

                1               2               3               4               5               6               7               8               9              10
               11              12              13              14              15              16              17              18              19              20
               21              22              23              24              25
 ................................................................................................................................................................
   1  6.925685720     7.033460184     7.039824147     6.998082053     6.954897220     6.934360804     6.927809006     6.926143795     6.925776293     6.925702531    
      6.925688656     6.925686155     6.925685689     6.925685557     6.925685477     6.925685413     6.925685366     6.925685341     6.925685341     6.925685353    
      6.925685382     6.925685429     6.925685489     6.925685569     6.925685652    
1
  CONCENTRATION IN LAYER   7 AT END OF TIME STEP   6 IN STRESS PERIOD    1
  ---------------------------------------------------------------------------

                1               2               3               4               5               6               7               8               9              10
               11              12              13              14              15              16              17              18              19              20
               21              22              23              24              25
 ................................................................................................................................................................
   1  6.925685720     6.977937417     6.991687825     6.972914545     6.947262920     6.932676985     6.927495514     6.926090773     6.925767850     6.925701248    
      6.925688474     6.925686135     6.925685691     6.925685562     6.925685482     6.925685418     6.925685371     6.925685345     6.925685345     6.925685356    
      6.925685384     6.925685429     6.925685488     6.925685567     6.925685650    
1
  CONCENTRATION IN LAYER   8 AT END OF TIME STEP   6 IN STRESS PERIOD    1
  ---------------------------------------------------------------------------

                1               2               3               4               5               6               7               8               9              10
               11              12              13              14              15              16              17              18              19              20
               21              22              23              24              25
 ................................................................................................................................................................
   1  6.925685720     6.950763248     6.963365045     6.955520151     6.941169852     6.931244973     6.927227070     6.926045812     6.925760734     6.925700167    
      6.925688323     6.925686123     6.925685699     6.925685573     6.925685496     6.925685434     6.925685388     6.925685362     6.925685361     6.925685370    
      6.925685396     6.925685438     6.925685494     6.925685569     6.925685650    
1
  CONCENTRATION IN LAYER   9 AT END OF TIME STEP   6 IN STRESS PERIOD    1
  ---------------------------------------------------------------------------

                1               2               3               4               5               6               7               8               9              10
               11              12              13              14              15              16              17              18              19              20
               21              22              23              24              25
 ................................................................................................................................................................
   1  6.925685720     6.938182795     6.948002147     6.945025390     6.937042740     6.930212919     6.927031517     6.926013320     6.925755618     6.925699391    
      6.925688219     6.925686121     6.925685711     6.925685591     6.925685517     6.925685457     6.925685413     6.925685388     6.925685384     6.925685392    
[...]
      7.491523950     7.482948443     7.470397345     7.452624713     7.423192601    
1
  CONCENTRATION IN LAYER   9 AT END OF TIME STEP  99 IN STRESS PERIOD    1
  ---------------------------------------------------------------------------

                1               2               3               4               5               6               7               8               9              10
               11              12              13              14              15              16              17              18              19              20
               21              22              23              24              25
 ................................................................................................................................................................
   1  6.925685720     6.964441459     7.053499932     7.160367501     7.255024052     7.328148780     7.381318506     7.418963170     7.445323971     7.463707402    
      7.476510088     7.485422334     7.491623873     7.495932598     7.498909954     7.500886061     7.501564778     7.501235030     7.499848954     7.496777251    
      7.491365741     7.482841381     7.470324527     7.452574999     7.423162145    
1
  CONCENTRATION IN LAYER  10 AT END OF TIME STEP  99 IN STRESS PERIOD    1
  ---------------------------------------------------------------------------

                1               2               3               4               5               6               7               8               9              10
               11              12              13              14              15              16              17              18              19              20
               21              22              23              24              25
 ................................................................................................................................................................
   1  6.925685720     6.954814552     7.030590913     7.132892923     7.230911856     7.309711210     7.368008965     7.409577015     7.438763698     7.459136262    
      7.473327731     7.483207221     7.490082027     7.494859393     7.498163586     7.500375281     7.501218004     7.500958086     7.499659394     7.496652577    
      7.491282707     7.482785200     7.470286278     7.452548873     7.423146134    

 CONCENTRATION WILL BE SAVED ON UNIT **** AT END OF TIME STEP   99, STRESS PERIOD    1



         TIME SUMMARY AT END OF TIME STEP   99 IN STRESS PERIOD    1
                    SECONDS     MINUTES      HOURS       DAYS        YEARS
                    -----------------------------------------------------------
   TIME STEP LENGTH 1.72800E+06  28800.      480.00      20.000     5.47570E-02
 STRESS PERIOD TIME 1.71072E+08 2.85120E+06  47520.      1980.0      5.4209    
         TOTAL TIME 1.71072E+08 2.85120E+06  47520.      1980.0      5.4209    


end timestep


start timestep kper="1" kstp="100" mode="normal"


 SSM PACKAGE (SSM) FLOW RATES   PERIOD      1   STEP      100
 ------------------------------------------------------------------------------------------------
   NUMBER   CELLID                   BOUND Q        SSM CONC          RATE         PACKAGE NAME  
 ------------------------------------------------------------------------------------------------
     1      (4,1,1)               0.0000000       0.0000000       0.0000000            CHD       
     2      (5,1,1)               0.0000000       0.0000000       0.0000000            CHD       
     3      (6,1,1)               0.0000000       0.0000000       0.0000000            CHD       
     4      (7,1,1)               0.0000000       0.0000000       0.0000000            CHD       
     5      (8,1,1)               0.0000000       0.0000000       0.0000000            CHD       
     6      (9,1,1)               0.0000000       0.0000000       0.0000000            CHD       
     7      (10,1,1)              0.0000000       0.0000000       0.0000000            CHD       
     8      (1,1,25)             -2.08333338E-02  7.4306308      -0.15480481           CHD       
     9      (2,1,25)             -2.08333338E-02  7.4306147      -0.15480448           CHD       
     10     (3,1,25)             -2.08333338E-02  7.4305842      -0.15480384           CHD       
     11     (4,1,25)             -2.08333338E-02  7.4305421      -0.15480296           CHD       
     12     (5,1,25)             -2.08333338E-02  7.4304926      -0.15480193           CHD       
     13     (6,1,25)             -2.08333338E-02  7.4304405      -0.15480085           CHD       
     14     (7,1,25)             -2.08333338E-02  7.4303911      -0.15479982           CHD       
     15     (8,1,25)             -2.08333338E-02  7.4303490      -0.15479894           CHD       
     16     (9,1,25)             -2.08333338E-02  7.4303184      -0.15479830           CHD       
     17     (10,1,25)            -2.08333338E-02  7.4303023      -0.15479797           CHD       
     1      (1,1,1)               2.08333329E-02  10.768065       0.22433467         CHDTAIL     
     2      (2,1,1)               2.08333329E-02  10.768065       0.22433467         CHDTAIL     
     3      (3,1,1)               2.08333329E-02  10.768065       0.22433467         CHDTAIL     
 ------------------------------------------------------------------------------------------------




 CNC PACKAGE (CNC) FLOW RATES   PERIOD      1   STEP      100
 -----------------------------------------------
   NUMBER   CELLID                    RATE      
 -----------------------------------------------
     1      (4,1,1)               2.90372233E-02
     2      (5,1,1)               0.14247544    
     3      (6,1,1)               0.14328914    
     4      (7,1,1)               0.14372935    
     5      (8,1,1)               0.14396387    
     6      (9,1,1)               0.14408326    
     7      (10,1,1)              0.14413340    
 -----------------------------------------------



1
  CONCENTRATION IN LAYER   1 AT END OF TIME STEP 100 IN STRESS PERIOD    1
  ---------------------------------------------------------------------------

                1               2               3               4               5               6               7               8               9              10
               11              12              13              14              15              16              17              18              19              20
               21              22              23              24              25
 ................................................................................................................................................................
   1  9.323828428     8.710255072     8.221197915     7.952970637     7.801353297     7.707152704     7.644832411     7.602319269     7.572939428     7.552535540    
      7.538341583     7.528462406     7.521584239     7.516789489     7.513415996     7.510924210     7.508829492     7.506679491     7.504000977     7.500230498    
      7.494671363     7.486494268     7.474765973     7.458200072     7.430630832    
1
  CONCENTRATION IN LAYER   2 AT END OF TIME STEP 100 IN STRESS PERIOD    1
  ---------------------------------------------------------------------------

                1               2               3               4               5               6               7               8               9              10
               11              12              13              14              15              16              17              18              19              20
               21              22              23              24              25
 ................................................................................................................................................................
   1  9.001117732     8.481043887     8.109861794     7.897715198     7.769551033     7.686758748     7.631072915     7.592844982     7.566366497     7.547964075    
      7.535159883     7.526247625     7.520042502     7.515716329     7.512669830     7.510404719     7.508464872     7.506422541     7.503821040     7.500106137    
      7.494586526     7.486436854     7.474727171     7.458173724     7.430614750    
1
  CONCENTRATION IN LAYER   3 AT END OF TIME STEP 100 IN STRESS PERIOD    1
  ---------------------------------------------------------------------------

                1               2               3               4               5               6               7               8               9              10
               11              12              13              14              15              16              17              18              19              20
               21              22              23              24              25
 ................................................................................................................................................................
   1  8.269174947     8.058359612     7.916191192     7.797948253     7.710271201     7.648224185     7.604957326     7.574835344     7.553865773     7.539268696    
      7.529107848     7.522034818     7.517109929     7.513675044     7.511250685     7.509416991     7.507771094     7.505933385     7.503478577     7.499869615    
      7.494425273     7.486327743     7.474653412     7.458123623     7.430584161    
1
  CONCENTRATION IN LAYER   4 AT END OF TIME STEP 100 IN STRESS PERIOD    1
  ---------------------------------------------------------------------------

                1               2               3               4               5               6               7               8               9              10
               11              12              13              14              15              16              17              18              19              20
               21              22              23              24              25
 ................................................................................................................................................................
   1  6.925685720     7.557453972     7.690571918     7.670262100     7.630973124     7.595714849     7.569136625     7.550072092     7.536663575     7.527300650    
      7.520777765     7.516236295     7.513073557     7.510865428     7.509297754     7.508058775     7.506815566     7.505259020     7.503006667     7.499544116    
      7.494203595     7.486177783     7.474551997     7.458054700     7.430542062    
1
  CONCENTRATION IN LAYER   5 AT END OF TIME STEP 100 IN STRESS PERIOD    1
  ---------------------------------------------------------------------------

                1               2               3               4               5               6               7               8               9              10
               11              12              13              14              15              16              17              18              19              20
               21              22              23              24              25
 ................................................................................................................................................................
   1  6.925685720     7.273143688     7.480333717     7.535337512     7.540302487     7.534705399     7.527215033     7.520996584     7.516446105     7.513231536    
      7.510984910     7.509419582     7.508328470     7.507562492     7.507002583     7.506465581     7.505690774     7.504463855     7.502450695     7.499161481    
      7.493943438     7.486001846     7.474432943     7.457973730     7.430492577    
1
  CONCENTRATION IN LAYER   6 AT END OF TIME STEP 100 IN STRESS PERIOD    1
  ---------------------------------------------------------------------------

                1               2               3               4               5               6               7               8               9              10
               11              12              13              14              15              16              17              18              19              20
               21              22              23              24              25
 ................................................................................................................................................................
   1  6.925685720     7.116913072     7.309822469     7.407563546     7.450394750     7.471614164     7.483292785     7.490454737     7.495193489     7.498438634    
      7.500687788     7.502251897     7.503339133     7.504089575     7.504590750     7.504800443     7.504503134     7.503622515     7.501863623     7.498759022    
      7.493670495     7.485817320     7.474307966     7.457888656     7.430440550    
1
  CONCENTRATION IN LAYER   7 AT END OF TIME STEP 100 IN STRESS PERIOD    1
  ---------------------------------------------------------------------------

                1               2               3               4               5               6               7               8               9              10
               11              12              13              14              15              16              17              18              19              20
               21              22              23              24              25
 ................................................................................................................................................................
   1  6.925685720     7.032392252     7.185696586     7.298883863     7.368647735     7.412759880     7.441799157     7.461457931     7.474987492     7.484369850    
      7.490894303     7.495434853     7.498593932     7.500786604     7.502293652     7.503242631     7.503368199     7.502809311     7.501300180     7.498375837    
      7.493411620     7.485642340     7.474189316     7.457807806     7.430391073    
1
  CONCENTRATION IN LAYER   8 AT END OF TIME STEP 100 IN STRESS PERIOD    1
  ---------------------------------------------------------------------------

                1               2               3               4               5               6               7               8               9              10
               11              12              13              14              15              16              17              18              19              20
               21              22              23              24              25
 ................................................................................................................................................................
   1  6.925685720     6.987364444     7.102953642     7.215726973     7.301910742     7.363497439     7.406704479     7.436831730     7.457804645     7.472402283    
      7.482563177     7.489635791     7.494557379     7.497976912     7.500339032     7.501905214     7.502443303     7.502097956     7.500812303     7.498049025    
      7.493192089     7.485493962     7.474088561     7.457739076     7.430348988    
1
  CONCENTRATION IN LAYER   9 AT END OF TIME STEP 100 IN STRESS PERIOD    1
  ---------------------------------------------------------------------------

                1               2               3               4               5               6               7               8               9              10
               11              12              13              14              15              16              17              18              19              20
               21              22              23              24              25
 ................................................................................................................................................................
   1  6.925685720     6.964441459     7.053499932     7.160367501     7.255024052     7.328148780     7.381318507     7.418963171     7.445323970     7.463707396    
      7.476510084     7.485422445     7.491624626     7.495935540     7.498918789     7.500930030     7.501785269     7.501575606     7.500453020     7.497810787    
      7.493032982     7.485386459     7.474015470     7.457689169     7.430318413    
1
  CONCENTRATION IN LAYER  10 AT END OF TIME STEP 100 IN STRESS PERIOD    1
  ---------------------------------------------------------------------------

                1               2               3               4               5               6               7               8               9              10
               11              12              13              14              15              16              17              18              19              20
               21              22              23              24              25
 ................................................................................................................................................................
   1  6.925685720     6.954814552     7.030590913     7.132892923     7.230911857     7.309711210     7.368008965     7.409577016     7.438763697     7.459136255    
      7.473327726     7.483207332     7.490082781     7.494862325     7.498172106     7.500416506     7.501442814     7.501299824     7.500262709     7.497685230    
      7.492949465     7.485330045     7.473977083     7.457662941     7.430302340    

 CONCENTRATION WILL BE SAVED ON UNIT **** AT END OF TIME STEP  100, STRESS PERIOD    1


  MASS BUDGET FOR ENTIRE MODEL AT END OF TIME STEP  100, STRESS PERIOD   1
  ---------------------------------------------------------------------------------------------------

     CUMULATIVE MASS      M       RATES FOR THIS TIME STEP      M/T          PACKAGE NAME    
     ------------------                 ------------------------                     ----------------

           IN:                                      IN:
           ---                                      ---
     STORAGE-AQUEOUS =       4.2262E-03       STORAGE-AQUEOUS =       8.2589E-09     MST                              
                 CHD =           0.0000                   CHD =           0.0000     SSM_CHD                          
                 CHD =        1346.0080                   CHD =           0.6730     SSM_CHDTAIL                      
                 CNC =        2006.0920                   CNC =           1.0027     CNC                              

            TOTAL IN =        3352.1043              TOTAL IN =           1.6757

          OUT:                                     OUT:
          ----                                     ----
     STORAGE-AQUEOUS =         200.5732       STORAGE-AQUEOUS =       1.5702E-02     MST                              
                 CHD =        2931.6314                   CHD =           1.5480     SSM_CHD                          
                 CHD =           0.0000                   CHD =           0.0000     SSM_CHDTAIL                      
                 CNC =         219.8997                   CNC =           0.1120     CNC                              

           TOTAL OUT =        3352.1043             TOTAL OUT =           1.6757

            IN - OUT =      -3.4072E-07              IN - OUT =       1.2543E-09

 PERCENT DISCREPANCY =          -0.00     PERCENT DISCREPANCY =           0.00




         TIME SUMMARY AT END OF TIME STEP  100 IN STRESS PERIOD    1
                    SECONDS     MINUTES      HOURS       DAYS        YEARS
                    -----------------------------------------------------------
   TIME STEP LENGTH 1.72800E+06  28800.      480.00      20.000     5.47570E-02
 STRESS PERIOD TIME 1.72800E+08 2.88000E+06  48000.      2000.0      5.4757    
         TOTAL TIME 1.72800E+08 2.88000E+06  48000.      2000.0      5.4757    


end timestep

