                                   MODFLOW 6
                U.S. GEOLOGICAL SURVEY MODULAR HYDROLOGIC MODEL
                       GROUNDWATER TRANSPORT MODEL (GWT)
                VERSION 6.5.0.dev0+prt (preliminary) 10/07/2023
                               ***DEVELOP MODE***

   MODFLOW 6 compiled Oct 07 2023 02:19:02 with Intel(R) Fortran Intel(R) 64
   Compiler Classic for applications running on Intel(R) 64, Version 2021.7.0
                             Build 20220726_000000

This software is preliminary or provisional and is subject to 
revision. It is being provided to meet the need for timely best 
science. The software has not received final approval by the U.S. 
Geological Survey (USGS). No warranty, expressed or implied, is made 
by the USGS or the U.S. Government as to the functionality of the 
software and related material nor shall the fact of release 
constitute any such warranty. The software is provided on the 
condition that neither the USGS nor the U.S. Government shall be held 
liable for any damages resulting from the authorized or unauthorized 
use of the software.


As a work of the United States Government, this USGS product is 
in the public domain within the United States. You can copy, 
modify, distribute, and perform the work, even for commercial 
purposes, all without asking permission. Additionally, USGS 
waives copyright and related rights in the work worldwide 
through CC0 1.0 Universal Public Domain Dedication 
(https://creativecommons.org/publicdomain/zero/1.0/).

The following GNU Lesser General Public License (LGPL) libraries
are used in this USGS product:

    SPARSKIT version 2.0
      ilut, luson, and qsplit 
      (https://www-users.cse.umn.edu/~saad/software/SPARSKIT/)

    RCM - Reverse Cuthill McKee Ordering
      (https://people.math.sc.edu/Burkardt/f_src/rcm/rcm.html)

    BLAS - Basic Linear Algebra Subprograms Level 1
      (https://people.math.sc.edu/Burkardt/f_src/blas1_d/blas1_d.html)

    SPARSEKIT - Sparse Matrix Utility Package
      amux, dperm, dvperm, rperm, and cperm
      (https://people.sc.fsu.edu/~jburkardt/f77_src/sparsekit/sparsekit.html)

The following BSD-3 License libraries are used in this USGS product:

    Modern Fortran DAG Library
      Copyright (c) 2018, Jacob Williams
      All rights reserved.
      (https://github.com/jacobwilliams/daglib)

MODFLOW 6 compiler options: /Isrc\libmf6core.a.p /Isrc /I..\src
/Isrc\libmf6_external.a.p /MTd /nologo /warn:general /warn:truncated_source
/stand:f08 /Zi /traceback /O2 /fpe:0 /heap-arrays:0 /traceback /fpp
/Qdiag-disable:7416 /Qdiag-disable:7025 /Qdiag-disable:5268
/Fdsrc\libmf6core.a.p\Utilities_compilerversion.F90.pdb
/module:src\libmf6core.a.p
/Fosrc/libmf6core.a.p/Utilities_compilerversion.F90.obj /c

System command used to initiate simulation:
c:\Users\portega\anaconda3\envs\mf6rtm\python.exe -m ipykernel_launcher --f=c:\Users\portega\AppData\Roaming\jupyter\runtime\kernel-v2-11124abUjR79KwWrX.json

MODFLOW was compiled using uniform precision.

Real Variables
  KIND: 8
  TINY (smallest non-zero value):    2.225074-308
  HUGE (largest value):    1.797693+308
  PRECISION: 15
  SIZE IN BITS: 64

Integer Variables
  KIND: 4
  HUGE (largest value): 2147483647
  SIZE IN BITS: 32

Long Integer Variables
  KIND: 8
  HUGE (largest value): 9223372036854775807
  SIZE IN BITS: 64

Logical Variables
  KIND: 4
  SIZE IN BITS: 32
 
 NAMEFILE OPTIONS:
 END NAMEFILE OPTIONS:

 DIS -- STRUCTURED GRID DISCRETIZATION PACKAGE, VERSION 2 : 3/27/2014 - INPUT READ FROM MEMPATH: __INPUT__/CA/DIS                                  


 DSP-- DISPERSION PACKAGE, VERSION 1, 1/24/2018 INPUT READ FROM MEMPATH: __INPUT__/CA/DSP                                  


 Setting Discretization Options
    Model length unit [0=UND, 1=FEET, 2=METERS, 3=CENTIMETERS] set as 2
 End Setting Discretization Options

 Setting Discretization Dimensions
    NLAY = 10
    NROW = 1
    NCOL = 25
 End Setting Discretization Dimensions

 Setting Discretization Griddata
    DELR set from input file
    DELC set from input file
    TOP set from input file
    BOTM set from input file
    IDOMAIN set from input file
 End Setting Discretization Griddata


 FMI -- FLOW MODEL INTERFACE,' VERSION 2, 8/17/2023
  FLOWS PROVIDED BY A GWF MODEL IN THIS SIMULATION

 ADV-- ADVECTION PACKAGE, VERSION 1, 8/25/2017 INPUT READ FROM UNIT 7123


 # File generated by Flopy version 3.5.0.dev0 on 05/31/2024 at 13:58:12.
 PROCESSING ADVECTION OPTIONS
    ADVECTION WEIGHTING SCHEME HAS BEEN SET TO: TVD
 END OF ADVECTION OPTIONS
 Setting DSP Options
    XT3D formulation [0=INACTIVE, 1=ACTIVE, 3=ACTIVE RHS] set to: 0
 End Setting DSP Options

 Setting DSP Griddata
    ALH set from input file
    ATH1 set from input file
    ATV set from input file
 End Setting DSP Griddata


 CNC   -- CNC PACKAGE, VERSION 8, 2/22/2014 INPUT READ FROM UNIT 7157
 # File generated by Flopy version 3.5.0.dev0 on 05/31/2024 at 13:58:12.

 PROCESSING CNC OPTIONS
 END OF CNC OPTIONS

 PROCESSING CNC DIMENSIONS
    MAXBOUND =       7
 END OF CNC DIMENSIONS

 IC -- INITIAL CONDITIONS PACKAGE, VERSION 8, 3/28/2015 INPUT READ FROM UNIT 7121
 # File generated by Flopy version 3.5.0.dev0 on 05/31/2024 at 13:58:12.
 PROCESSING GRIDDATA

 OPENED Ca.ic_strt_layer1.txt
 FILE TYPE:OPEN/CLOSE   UNIT 7760   STATUS:OLD                 
 FORMAT:FORMATTED              ACCESS:SEQUENTIAL          
 ACTION:READ                


 OPENED Ca.ic_strt_layer2.txt
 FILE TYPE:OPEN/CLOSE   UNIT 7761   STATUS:OLD                 
 FORMAT:FORMATTED              ACCESS:SEQUENTIAL          
 ACTION:READ                


 OPENED Ca.ic_strt_layer3.txt
 FILE TYPE:OPEN/CLOSE   UNIT 7762   STATUS:OLD                 
 FORMAT:FORMATTED              ACCESS:SEQUENTIAL          
 ACTION:READ                


 OPENED Ca.ic_strt_layer4.txt
 FILE TYPE:OPEN/CLOSE   UNIT 7763   STATUS:OLD                 
 FORMAT:FORMATTED              ACCESS:SEQUENTIAL          
 ACTION:READ                


 OPENED Ca.ic_strt_layer5.txt
 FILE TYPE:OPEN/CLOSE   UNIT 7764   STATUS:OLD                 
 FORMAT:FORMATTED              ACCESS:SEQUENTIAL          
 ACTION:READ                


 OPENED Ca.ic_strt_layer6.txt
 FILE TYPE:OPEN/CLOSE   UNIT 7765   STATUS:OLD                 
 FORMAT:FORMATTED              ACCESS:SEQUENTIAL          
 ACTION:READ                


 OPENED Ca.ic_strt_layer7.txt
 FILE TYPE:OPEN/CLOSE   UNIT 7766   STATUS:OLD                 
 FORMAT:FORMATTED              ACCESS:SEQUENTIAL          
 ACTION:READ                


 OPENED Ca.ic_strt_layer8.txt
 FILE TYPE:OPEN/CLOSE   UNIT 7767   STATUS:OLD                 
 FORMAT:FORMATTED              ACCESS:SEQUENTIAL          
 ACTION:READ                


 OPENED Ca.ic_strt_layer9.txt
 FILE TYPE:OPEN/CLOSE   UNIT 7768   STATUS:OLD                 
 FORMAT:FORMATTED              ACCESS:SEQUENTIAL          
 ACTION:READ                


 OPENED Ca.ic_strt_layer10.txt
 FILE TYPE:OPEN/CLOSE   UNIT 7769   STATUS:OLD                 
 FORMAT:FORMATTED              ACCESS:SEQUENTIAL          
 ACTION:READ                

 END PROCESSING GRIDDATA

 MST -- MOBILE STORAGE AND TRANSFER PACKAGE, VERSION 1, 7/29/2020 INPUT READ FROM UNIT 7122


 # File generated by Flopy version 3.5.0.dev0 on 05/31/2024 at 13:58:12.
 PROCESSING MOBILE STORAGE AND TRANSFER OPTIONS
 END OF MOBILE STORAGE AND TRANSFER OPTIONS
 PROCESSING GRIDDATA

 OPENED Ca.mst_porosity.txt
 FILE TYPE:OPEN/CLOSE   UNIT 7770   STATUS:OLD                 
 FORMAT:FORMATTED              ACCESS:SEQUENTIAL          
 ACTION:READ                

 END PROCESSING GRIDDATA

 SSM -- SOURCE-SINK MIXING PACKAGE, VERSION 1, 8/25/2017 INPUT READ FROM UNIT 7155


 # File generated by Flopy version 3.5.0.dev0 on 05/31/2024 at 13:58:12.
 PROCESSING SSM OPTIONS
 END OF SSM OPTIONS

 OPENED Ca.ssm_sources.txt
 FILE TYPE:OPEN/CLOSE   UNIT 7771   STATUS:OLD                 
 FORMAT:FORMATTED              ACCESS:SEQUENTIAL          
 ACTION:READ                

 PROCESSING SOURCES
 AUX SOURCE DETECTED.
    USING AUX COLUMN 6 IN PACKAGE CHDTAIL
 END PROCESSING SOURCES
 OPTIONAL FILEINPUT BLOCK NOT FOUND.  CONTINUING.
      THE LAST TIME STEP WILL BE PRINTED
      THE LAST TIME STEP WILL BE PRINTED
 # File generated by Flopy version 3.5.0.dev0 on 05/31/2024 at 13:58:12.

 PROCESSING OC OPTIONS

    BUDGET INFORMATION WILL BE WRITTEN TO:
      UNIT NUMBER: 7772
      FILE NAME: Ca.cbb

 OPENED Ca.cbb
 FILE TYPE:DATA(BINARY)   UNIT 7772   STATUS:REPLACE             
 FORMAT:UNFORMATTED            ACCESS:STREAM              
 ACTION:READWRITE           

    CONCENTRATION INFORMATION WILL BE WRITTEN TO:
      UNIT NUMBER: 7773
      FILE NAME: Ca.ucn

 OPENED Ca.ucn
 FILE TYPE:DATA(BINARY)   UNIT 7773   STATUS:REPLACE             
 FORMAT:UNFORMATTED            ACCESS:STREAM              
 ACTION:READWRITE           

 END OF OC OPTIONS

start timestep kper="1" kstp="1" mode="normal"


 BEGIN READING OUTPUT CONTROL FOR STRESS PERIOD 1
      ALL TIME STEPS WILL BE SAVED
      THE LAST TIME STEP WILL BE PRINTED

 END READING OUTPUT CONTROL FOR STRESS PERIOD 1

 OPENED Ca.cnc_stress_period_data_1.txt
 FILE TYPE:OPEN/CLOSE   UNIT 7891   STATUS:OLD                 
 FORMAT:FORMATTED              ACCESS:SEQUENTIAL          
 ACTION:READ                


 CONCENTRATION WILL BE SAVED ON UNIT 7773 AT END OF TIME STEP    1, STRESS PERIOD    1

end timestep


start timestep kper="1" kstp="2" mode="normal"


 CONCENTRATION WILL BE SAVED ON UNIT 7773 AT END OF TIME STEP    2, STRESS PERIOD    1

end timestep


start timestep kper="1" kstp="3" mode="normal"


 CONCENTRATION WILL BE SAVED ON UNIT 7773 AT END OF TIME STEP    3, STRESS PERIOD    1

end timestep


start timestep kper="1" kstp="4" mode="normal"


 CONCENTRATION WILL BE SAVED ON UNIT 7773 AT END OF TIME STEP    4, STRESS PERIOD    1

end timestep


start timestep kper="1" kstp="5" mode="normal"


 CONCENTRATION WILL BE SAVED ON UNIT 7773 AT END OF TIME STEP    5, STRESS PERIOD    1

end timestep


start timestep kper="1" kstp="6" mode="normal"


 CONCENTRATION WILL BE SAVED ON UNIT 7773 AT END OF TIME STEP    6, STRESS PERIOD    1

end timestep


start timestep kper="1" kstp="7" mode="normal"


 CONCENTRATION WILL BE SAVED ON UNIT 7773 AT END OF TIME STEP    7, STRESS PERIOD    1

end timestep


start timestep kper="1" kstp="8" mode="normal"


 CONCENTRATION WILL BE SAVED ON UNIT 7773 AT END OF TIME STEP    8, STRESS PERIOD    1

end timestep


start timestep kper="1" kstp="9" mode="normal"


 CONCENTRATION WILL BE SAVED ON UNIT 7773 AT END OF TIME STEP    9, STRESS PERIOD    1

end timestep


start timestep kper="1" kstp="10" mode="normal"


 CONCENTRATION WILL BE SAVED ON UNIT 7773 AT END OF TIME STEP   10, STRESS PERIOD    1

end timestep


start timestep kper="1" kstp="11" mode="normal"


 CONCENTRATION WILL BE SAVED ON UNIT 7773 AT END OF TIME STEP   11, STRESS PERIOD    1

end timestep


start timestep kper="1" kstp="12" mode="normal"


 CONCENTRATION WILL BE SAVED ON UNIT 7773 AT END OF TIME STEP   12, STRESS PERIOD    1

end timestep


start timestep kper="1" kstp="13" mode="normal"


 CONCENTRATION WILL BE SAVED ON UNIT 7773 AT END OF TIME STEP   13, STRESS PERIOD    1

end timestep


start timestep kper="1" kstp="14" mode="normal"


 CONCENTRATION WILL BE SAVED ON UNIT 7773 AT END OF TIME STEP   14, STRESS PERIOD    1

end timestep


start timestep kper="1" kstp="15" mode="normal"


 CONCENTRATION WILL BE SAVED ON UNIT 7773 AT END OF TIME STEP   15, STRESS PERIOD    1

end timestep


start timestep kper="1" kstp="16" mode="normal"


 CONCENTRATION WILL BE SAVED ON UNIT 7773 AT END OF TIME STEP   16, STRESS PERIOD    1

end timestep


start timestep kper="1" kstp="17" mode="normal"


 CONCENTRATION WILL BE SAVED ON UNIT 7773 AT END OF TIME STEP   17, STRESS PERIOD    1

end timestep


start timestep kper="1" kstp="18" mode="normal"


 CONCENTRATION WILL BE SAVED ON UNIT 7773 AT END OF TIME STEP   18, STRESS PERIOD    1

end timestep


start timestep kper="1" kstp="19" mode="normal"


 CONCENTRATION WILL BE SAVED ON UNIT 7773 AT END OF TIME STEP   19, STRESS PERIOD    1

end timestep


start timestep kper="1" kstp="20" mode="normal"


 CONCENTRATION WILL BE SAVED ON UNIT 7773 AT END OF TIME STEP   20, STRESS PERIOD    1

end timestep


start timestep kper="1" kstp="21" mode="normal"


 CONCENTRATION WILL BE SAVED ON UNIT 7773 AT END OF TIME STEP   21, STRESS PERIOD    1

end timestep


start timestep kper="1" kstp="22" mode="normal"


 CONCENTRATION WILL BE SAVED ON UNIT 7773 AT END OF TIME STEP   22, STRESS PERIOD    1

end timestep


start timestep kper="1" kstp="23" mode="normal"


 CONCENTRATION WILL BE SAVED ON UNIT 7773 AT END OF TIME STEP   23, STRESS PERIOD    1

end timestep


start timestep kper="1" kstp="24" mode="normal"


 CONCENTRATION WILL BE SAVED ON UNIT 7773 AT END OF TIME STEP   24, STRESS PERIOD    1

end timestep


start timestep kper="1" kstp="25" mode="normal"


 CONCENTRATION WILL BE SAVED ON UNIT 7773 AT END OF TIME STEP   25, STRESS PERIOD    1

end timestep


start timestep kper="1" kstp="26" mode="normal"


 CONCENTRATION WILL BE SAVED ON UNIT 7773 AT END OF TIME STEP   26, STRESS PERIOD    1

end timestep


start timestep kper="1" kstp="27" mode="normal"


 CONCENTRATION WILL BE SAVED ON UNIT 7773 AT END OF TIME STEP   27, STRESS PERIOD    1

end timestep


start timestep kper="1" kstp="28" mode="normal"


 CONCENTRATION WILL BE SAVED ON UNIT 7773 AT END OF TIME STEP   28, STRESS PERIOD    1

end timestep


start timestep kper="1" kstp="29" mode="normal"


 CONCENTRATION WILL BE SAVED ON UNIT 7773 AT END OF TIME STEP   29, STRESS PERIOD    1

end timestep


start timestep kper="1" kstp="30" mode="normal"


 CONCENTRATION WILL BE SAVED ON UNIT 7773 AT END OF TIME STEP   30, STRESS PERIOD    1

end timestep


start timestep kper="1" kstp="31" mode="normal"


 CONCENTRATION WILL BE SAVED ON UNIT 7773 AT END OF TIME STEP   31, STRESS PERIOD    1

end timestep


start timestep kper="1" kstp="32" mode="normal"


 CONCENTRATION WILL BE SAVED ON UNIT 7773 AT END OF TIME STEP   32, STRESS PERIOD    1

end timestep


start timestep kper="1" kstp="33" mode="normal"


 CONCENTRATION WILL BE SAVED ON UNIT 7773 AT END OF TIME STEP   33, STRESS PERIOD    1

end timestep


start timestep kper="1" kstp="34" mode="normal"


 CONCENTRATION WILL BE SAVED ON UNIT 7773 AT END OF TIME STEP   34, STRESS PERIOD    1

end timestep


start timestep kper="1" kstp="35" mode="normal"


 CONCENTRATION WILL BE SAVED ON UNIT 7773 AT END OF TIME STEP   35, STRESS PERIOD    1

end timestep


start timestep kper="1" kstp="36" mode="normal"


 CONCENTRATION WILL BE SAVED ON UNIT 7773 AT END OF TIME STEP   36, STRESS PERIOD    1

end timestep


start timestep kper="1" kstp="37" mode="normal"


 CONCENTRATION WILL BE SAVED ON UNIT 7773 AT END OF TIME STEP   37, STRESS PERIOD    1

end timestep


start timestep kper="1" kstp="38" mode="normal"


 CONCENTRATION WILL BE SAVED ON UNIT 7773 AT END OF TIME STEP   38, STRESS PERIOD    1

end timestep


start timestep kper="1" kstp="39" mode="normal"


 CONCENTRATION WILL BE SAVED ON UNIT 7773 AT END OF TIME STEP   39, STRESS PERIOD    1

end timestep


start timestep kper="1" kstp="40" mode="normal"


 CONCENTRATION WILL BE SAVED ON UNIT 7773 AT END OF TIME STEP   40, STRESS PERIOD    1

end timestep


start timestep kper="1" kstp="41" mode="normal"


 CONCENTRATION WILL BE SAVED ON UNIT 7773 AT END OF TIME STEP   41, STRESS PERIOD    1

end timestep


start timestep kper="1" kstp="42" mode="normal"


 CONCENTRATION WILL BE SAVED ON UNIT 7773 AT END OF TIME STEP   42, STRESS PERIOD    1

end timestep


start timestep kper="1" kstp="43" mode="normal"


 CONCENTRATION WILL BE SAVED ON UNIT 7773 AT END OF TIME STEP   43, STRESS PERIOD    1

end timestep


start timestep kper="1" kstp="44" mode="normal"


 CONCENTRATION WILL BE SAVED ON UNIT 7773 AT END OF TIME STEP   44, STRESS PERIOD    1

end timestep


start timestep kper="1" kstp="45" mode="normal"


 CONCENTRATION WILL BE SAVED ON UNIT 7773 AT END OF TIME STEP   45, STRESS PERIOD    1

end timestep


start timestep kper="1" kstp="46" mode="normal"


 CONCENTRATION WILL BE SAVED ON UNIT 7773 AT END OF TIME STEP   46, STRESS PERIOD    1

end timestep


start timestep kper="1" kstp="47" mode="normal"


 CONCENTRATION WILL BE SAVED ON UNIT 7773 AT END OF TIME STEP   47, STRESS PERIOD    1

end timestep


start timestep kper="1" kstp="48" mode="normal"


 CONCENTRATION WILL BE SAVED ON UNIT 7773 AT END OF TIME STEP   48, STRESS PERIOD    1

end timestep


start timestep kper="1" kstp="49" mode="normal"


 CONCENTRATION WILL BE SAVED ON UNIT 7773 AT END OF TIME STEP   49, STRESS PERIOD    1

end timestep


start timestep kper="1" kstp="50" mode="normal"


 CONCENTRATION WILL BE SAVED ON UNIT 7773 AT END OF TIME STEP   50, STRESS PERIOD    1

end timestep


start timestep kper="1" kstp="51" mode="normal"


 CONCENTRATION WILL BE SAVED ON UNIT 7773 AT END OF TIME STEP   51, STRESS PERIOD    1

end timestep


start timestep kper="1" kstp="52" mode="normal"


 CONCENTRATION WILL BE SAVED ON UNIT 7773 AT END OF TIME STEP   52, STRESS PERIOD    1

end timestep


start timestep kper="1" kstp="53" mode="normal"


 CONCENTRATION WILL BE SAVED ON UNIT 7773 AT END OF TIME STEP   53, STRESS PERIOD    1

end timestep


start timestep kper="1" kstp="54" mode="normal"


 CONCENTRATION WILL BE SAVED ON UNIT 7773 AT END OF TIME STEP   54, STRESS PERIOD    1

end timestep


start timestep kper="1" kstp="55" mode="normal"


 CONCENTRATION WILL BE SAVED ON UNIT 7773 AT END OF TIME STEP   55, STRESS PERIOD    1

end timestep


start timestep kper="1" kstp="56" mode="normal"


 CONCENTRATION WILL BE SAVED ON UNIT 7773 AT END OF TIME STEP   56, STRESS PERIOD    1

end timestep


start timestep kper="1" kstp="57" mode="normal"


 CONCENTRATION WILL BE SAVED ON UNIT 7773 AT END OF TIME STEP   57, STRESS PERIOD    1

end timestep


start timestep kper="1" kstp="58" mode="normal"


 CONCENTRATION WILL BE SAVED ON UNIT 7773 AT END OF TIME STEP   58, STRESS PERIOD    1

end timestep


start timestep kper="1" kstp="59" mode="normal"


 CONCENTRATION WILL BE SAVED ON UNIT 7773 AT END OF TIME STEP   59, STRESS PERIOD    1

end timestep


start timestep kper="1" kstp="60" mode="normal"


 CONCENTRATION WILL BE SAVED ON UNIT 7773 AT END OF TIME STEP   60, STRESS PERIOD    1

end timestep


start timestep kper="1" kstp="61" mode="normal"


 CONCENTRATION WILL BE SAVED ON UNIT 7773 AT END OF TIME STEP   61, STRESS PERIOD    1

end timestep


start timestep kper="1" kstp="62" mode="normal"


 CONCENTRATION WILL BE SAVED ON UNIT 7773 AT END OF TIME STEP   62, STRESS PERIOD    1

end timestep


start timestep kper="1" kstp="63" mode="normal"


 CONCENTRATION WILL BE SAVED ON UNIT 7773 AT END OF TIME STEP   63, STRESS PERIOD    1

end timestep


start timestep kper="1" kstp="64" mode="normal"


 CONCENTRATION WILL BE SAVED ON UNIT 7773 AT END OF TIME STEP   64, STRESS PERIOD    1

end timestep


start timestep kper="1" kstp="65" mode="normal"


 CONCENTRATION WILL BE SAVED ON UNIT 7773 AT END OF TIME STEP   65, STRESS PERIOD    1

end timestep


start timestep kper="1" kstp="66" mode="normal"


 CONCENTRATION WILL BE SAVED ON UNIT 7773 AT END OF TIME STEP   66, STRESS PERIOD    1

end timestep


start timestep kper="1" kstp="67" mode="normal"


 CONCENTRATION WILL BE SAVED ON UNIT 7773 AT END OF TIME STEP   67, STRESS PERIOD    1

end timestep


start timestep kper="1" kstp="68" mode="normal"


 CONCENTRATION WILL BE SAVED ON UNIT 7773 AT END OF TIME STEP   68, STRESS PERIOD    1

end timestep


start timestep kper="1" kstp="69" mode="normal"


 CONCENTRATION WILL BE SAVED ON UNIT 7773 AT END OF TIME STEP   69, STRESS PERIOD    1

end timestep


start timestep kper="1" kstp="70" mode="normal"


 CONCENTRATION WILL BE SAVED ON UNIT 7773 AT END OF TIME STEP   70, STRESS PERIOD    1

end timestep


start timestep kper="1" kstp="71" mode="normal"


 CONCENTRATION WILL BE SAVED ON UNIT 7773 AT END OF TIME STEP   71, STRESS PERIOD    1

end timestep


start timestep kper="1" kstp="72" mode="normal"


 CONCENTRATION WILL BE SAVED ON UNIT 7773 AT END OF TIME STEP   72, STRESS PERIOD    1

end timestep


start timestep kper="1" kstp="73" mode="normal"


 CONCENTRATION WILL BE SAVED ON UNIT 7773 AT END OF TIME STEP   73, STRESS PERIOD    1

end timestep


start timestep kper="1" kstp="74" mode="normal"


 CONCENTRATION WILL BE SAVED ON UNIT 7773 AT END OF TIME STEP   74, STRESS PERIOD    1

end timestep


start timestep kper="1" kstp="75" mode="normal"


 CONCENTRATION WILL BE SAVED ON UNIT 7773 AT END OF TIME STEP   75, STRESS PERIOD    1

end timestep


start timestep kper="1" kstp="76" mode="normal"


 CONCENTRATION WILL BE SAVED ON UNIT 7773 AT END OF TIME STEP   76, STRESS PERIOD    1

end timestep


start timestep kper="1" kstp="77" mode="normal"


 CONCENTRATION WILL BE SAVED ON UNIT 7773 AT END OF TIME STEP   77, STRESS PERIOD    1

end timestep


start timestep kper="1" kstp="78" mode="normal"


 CONCENTRATION WILL BE SAVED ON UNIT 7773 AT END OF TIME STEP   78, STRESS PERIOD    1

end timestep


start timestep kper="1" kstp="79" mode="normal"


 CONCENTRATION WILL BE SAVED ON UNIT 7773 AT END OF TIME STEP   79, STRESS PERIOD    1

end timestep


start timestep kper="1" kstp="80" mode="normal"


 CONCENTRATION WILL BE SAVED ON UNIT 7773 AT END OF TIME STEP   80, STRESS PERIOD    1

end timestep


start timestep kper="1" kstp="81" mode="normal"


 CONCENTRATION WILL BE SAVED ON UNIT 7773 AT END OF TIME STEP   81, STRESS PERIOD    1

end timestep


start timestep kper="1" kstp="82" mode="normal"


 CONCENTRATION WILL BE SAVED ON UNIT 7773 AT END OF TIME STEP   82, STRESS PERIOD    1

end timestep


start timestep kper="1" kstp="83" mode="normal"


 CONCENTRATION WILL BE SAVED ON UNIT 7773 AT END OF TIME STEP   83, STRESS PERIOD    1

end timestep


start timestep kper="1" kstp="84" mode="normal"


 CONCENTRATION WILL BE SAVED ON UNIT 7773 AT END OF TIME STEP   84, STRESS PERIOD    1

end timestep


start timestep kper="1" kstp="85" mode="normal"


 CONCENTRATION WILL BE SAVED ON UNIT 7773 AT END OF TIME STEP   85, STRESS PERIOD    1

end timestep


start timestep kper="1" kstp="86" mode="normal"


 CONCENTRATION WILL BE SAVED ON UNIT 7773 AT END OF TIME STEP   86, STRESS PERIOD    1

end timestep


start timestep kper="1" kstp="87" mode="normal"


 CONCENTRATION WILL BE SAVED ON UNIT 7773 AT END OF TIME STEP   87, STRESS PERIOD    1

end timestep


start timestep kper="1" kstp="88" mode="normal"


 CONCENTRATION WILL BE SAVED ON UNIT 7773 AT END OF TIME STEP   88, STRESS PERIOD    1

end timestep


start timestep kper="1" kstp="89" mode="normal"


 CONCENTRATION WILL BE SAVED ON UNIT 7773 AT END OF TIME STEP   89, STRESS PERIOD    1

end timestep


start timestep kper="1" kstp="90" mode="normal"


 CONCENTRATION WILL BE SAVED ON UNIT 7773 AT END OF TIME STEP   90, STRESS PERIOD    1

end timestep


start timestep kper="1" kstp="91" mode="normal"


 CONCENTRATION WILL BE SAVED ON UNIT 7773 AT END OF TIME STEP   91, STRESS PERIOD    1

end timestep


start timestep kper="1" kstp="92" mode="normal"


 CONCENTRATION WILL BE SAVED ON UNIT 7773 AT END OF TIME STEP   92, STRESS PERIOD    1

end timestep


start timestep kper="1" kstp="93" mode="normal"


 CONCENTRATION WILL BE SAVED ON UNIT 7773 AT END OF TIME STEP   93, STRESS PERIOD    1

end timestep


start timestep kper="1" kstp="94" mode="normal"


 CONCENTRATION WILL BE SAVED ON UNIT 7773 AT END OF TIME STEP   94, STRESS PERIOD    1

end timestep


start timestep kper="1" kstp="95" mode="normal"


 CONCENTRATION WILL BE SAVED ON UNIT 7773 AT END OF TIME STEP   95, STRESS PERIOD    1

end timestep


start timestep kper="1" kstp="96" mode="normal"


 CONCENTRATION WILL BE SAVED ON UNIT 7773 AT END OF TIME STEP   96, STRESS PERIOD    1

end timestep


start timestep kper="1" kstp="97" mode="normal"


 CONCENTRATION WILL BE SAVED ON UNIT 7773 AT END OF TIME STEP   97, STRESS PERIOD    1

end timestep


start timestep kper="1" kstp="98" mode="normal"


 CONCENTRATION WILL BE SAVED ON UNIT 7773 AT END OF TIME STEP   98, STRESS PERIOD    1

end timestep


start timestep kper="1" kstp="99" mode="normal"


 CONCENTRATION WILL BE SAVED ON UNIT 7773 AT END OF TIME STEP   99, STRESS PERIOD    1

end timestep


start timestep kper="1" kstp="100" mode="normal"

1
  CONCENTRATION IN LAYER   1 AT END OF TIME STEP 100 IN STRESS PERIOD    1
  ---------------------------------------------------------------------------

                1               2               3               4               5               6               7               8               9              10
               11              12              13              14              15              16              17              18              19              20
               21              22              23              24              25
 ................................................................................................................................................................
   1  9.257085338     8.780908790     8.762208171     9.242535579     10.74303650     14.68999852     15.50946708     15.36062605     15.03918029     14.74138445    
      14.50830537     14.33274653     14.19093097     14.06725581     13.95180278     13.82997512     13.69939597     13.55538344     13.39327436     13.20971357    
      13.00257365     12.77080357     12.51493544     12.23994336     11.96764677    
1
  CONCENTRATION IN LAYER   2 AT END OF TIME STEP 100 IN STRESS PERIOD    1
  ---------------------------------------------------------------------------

                1               2               3               4               5               6               7               8               9              10
               11              12              13              14              15              16              17              18              19              20
               21              22              23              24              25
 ................................................................................................................................................................
   1  8.952800403     8.583430495     8.668500102     9.243933770     10.77999190     14.58038495     15.32187312     15.20342204     14.92727993     14.66202632    
      14.45223640     14.29251341     14.16203983     14.04656634     13.93715904     13.81962919     13.69208952     13.55020816     13.38960272     13.20710976    
      13.00072939     12.76949882     12.51401285     12.23929347     11.96718327    
1
  CONCENTRATION IN LAYER   3 AT END OF TIME STEP 100 IN STRESS PERIOD    1
  ---------------------------------------------------------------------------

                1               2               3               4               5               6               7               8               9              10
               11              12              13              14              15              16              17              18              19              20
               21              22              23              24              25
 ................................................................................................................................................................
   1  8.251569222     8.219425225     8.524721463     9.278092275     10.89940459     14.23032220     14.94937934     14.90531081     14.71524825     14.51115738    
      14.34543718     14.21589187     14.10705773     14.00724709     13.90918274     13.79996506     13.67821543     13.54037354     13.38262161     13.20215774    
      12.99722154     12.76701707     12.51225856     12.23805598     11.96630224    
1
  CONCENTRATION IN LAYER   4 AT END OF TIME STEP 100 IN STRESS PERIOD    1
  ---------------------------------------------------------------------------

                1               2               3               4               5               6               7               8               9              10
               11              12              13              14              15              16              17              18              19              20
               21              22              23              24              25
 ................................................................................................................................................................
   1  6.925685720     7.791540325     8.429272014     9.392522312     11.20587917     13.81431865     14.45046200     14.50685307     14.42269018     14.30329507    
      14.19807182     14.11024328     14.03132557     13.95311052     13.87051120     13.77291870     13.65915918     13.52685620     13.37301919     13.19534357    
      12.99239379     12.76360122     12.50984503     12.23635118     11.96508992    
1
  CONCENTRATION IN LAYER   5 AT END OF TIME STEP 100 IN STRESS PERIOD    1
  ---------------------------------------------------------------------------

                1               2               3               4               5               6               7               8               9              10
               11              12              13              14              15              16              17              18              19              20
               21              22              23              24              25
 ................................................................................................................................................................
   1  6.925685720     7.704469853     8.433103675     9.613638823     11.86818314     13.34796368     13.88204653     14.05247742     14.07961421     14.05889616    
      14.02440847     13.98585526     13.94222752     13.88933103     13.82487280     13.74112368     13.63680616     13.51099375     13.36174064     13.18733557    
      12.98671891     12.75958603     12.50700809     12.23434627     11.96366478    
1
  CONCENTRATION IN LAYER   6 AT END OF TIME STEP 100 IN STRESS PERIOD    1
  ---------------------------------------------------------------------------

                1               2               3               4               5               6               7               8               9              10
               11              12              13              14              15              16              17              18              19              20
               21              22              23              24              25
 ................................................................................................................................................................
   1  6.925685720     7.908931218     8.549228940     9.915397651     11.67104243     12.74933659     13.29117747     13.57881677     13.72758630     13.80342455    
      13.84167920     13.85512760     13.84845896     13.82194036     13.77656404     13.70769301     13.61337212     13.49435167     13.34989346     13.17891823    
      12.98075256     12.75536475     12.50402497     12.23223786     11.96216625    
1
  CONCENTRATION IN LAYER   7 AT END OF TIME STEP 100 IN STRESS PERIOD    1
  ---------------------------------------------------------------------------

                1               2               3               4               5               6               7               8               9              10
               11              12              13              14              15              16              17              18              19              20
               21              22              23              24              25
 ................................................................................................................................................................
   1  6.925685720     7.715977357     8.699250138     9.932794931     11.19346075     12.12882285     12.73413133     13.13545833     13.39605947     13.56203476    
      13.66810188     13.73220342     13.76008578     13.75664421     13.73002132     13.67590329     13.59117675     13.47856498     13.33863744     13.17091521    
      12.97507877     12.75135052     12.50118757     12.23023245     11.96074104    
1
  CONCENTRATION IN LAYER   8 AT END OF TIME STEP 100 IN STRESS PERIOD    1
  ---------------------------------------------------------------------------

                1               2               3               4               5               6               7               8               9              10
               11              12              13              14              15              16              17              18              19              20
               21              22              23              24              25
 ................................................................................................................................................................
   1  6.925685720     7.500339956     8.431221486     9.569931507     10.67560658     11.58662799     12.26556568     12.76387903     13.11647820     13.35772120    
      13.52086010     13.62741088     13.68631984     13.70111460     13.68929650     13.64882916     13.57239753     13.46517312     13.32907096     13.16410888    
      12.97025278     12.74793607     12.49877380     12.22852632     11.95952869    
1
  CONCENTRATION IN LAYER   9 AT END OF TIME STEP 100 IN STRESS PERIOD    1
  ---------------------------------------------------------------------------

                1               2               3               4               5               6               7               8               9              10
               11              12              13              14              15              16              17              18              19              20
               21              22              23              24              25
 ................................................................................................................................................................
   1  6.925685720     7.353095660     8.164470661     9.216561744     10.26944635     11.19120947     11.92887823     12.49703651     12.91473815     13.20984669    
      13.41412215     13.55121375     13.63341163     13.66057776     13.65921836     13.62920496     13.55882403     13.45546627     13.32212540     13.15916449    
      12.96674673     12.74545550     12.49702010     12.22728653     11.95864785    
1
  CONCENTRATION IN LAYER  10 AT END OF TIME STEP 100 IN STRESS PERIOD    1
  ---------------------------------------------------------------------------

                1               2               3               4               5               6               7               8               9              10
               11              12              13              14              15              16              17              18              19              20
               21              22              23              24              25
 ................................................................................................................................................................
   1  6.925685720     7.282134717     8.017836211     9.017415407     10.05144962     10.98396666     11.75326410     12.35777713     12.80914286     13.13228872    
      13.35808527     13.51114982     13.60557693     13.63925042     13.64364962     13.61869919     13.55168747     13.45037501     13.31847665     13.15656533    
      12.96490357     12.74415150     12.49609819     12.22663460     11.95818473    

 CONCENTRATION WILL BE SAVED ON UNIT 7773 AT END OF TIME STEP  100, STRESS PERIOD    1


  MASS BUDGET FOR ENTIRE MODEL AT END OF TIME STEP  100, STRESS PERIOD   1
  ---------------------------------------------------------------------------------------------------

     CUMULATIVE MASS      M       RATES FOR THIS TIME STEP      M/T          PACKAGE NAME    
     ------------------                 ------------------------                     ----------------

           IN:                                      IN:
           ---                                      ---
     STORAGE-AQUEOUS =        2583.2896       STORAGE-AQUEOUS =           1.3938     MST                              
                 CHD =           0.0000                   CHD =           0.0000     SSM_CHD                          
                 CHD =        1346.0081                   CHD =           0.6730     SSM_CHDTAIL                      
                 CNC =        1830.5916                   CNC =           0.9478     CNC                              

            TOTAL IN =        5759.8893              TOTAL IN =           3.0146

          OUT:                                     OUT:
          ----                                     ----
     STORAGE-AQUEOUS =        1994.9460       STORAGE-AQUEOUS =           0.4119     MST                              
                 CHD =        3395.1475                   CHD =           2.4923     SSM_CHD                          
                 CHD =           0.0000                   CHD =           0.0000     SSM_CHDTAIL                      
                 CNC =         369.7958                   CNC =           0.1105     CNC                              

           TOTAL OUT =        5759.8893             TOTAL OUT =           3.0146

            IN - OUT =      -6.1224E-07              IN - OUT =       2.5775E-12

 PERCENT DISCREPANCY =          -0.00     PERCENT DISCREPANCY =           0.00




         TIME SUMMARY AT END OF TIME STEP  100 IN STRESS PERIOD    1
                    SECONDS     MINUTES      HOURS       DAYS        YEARS
                    -----------------------------------------------------------
   TIME STEP LENGTH 1.72800E+06  28800.      480.00      20.000     5.47570E-02
 STRESS PERIOD TIME 1.72800E+08 2.88000E+06  48000.      2000.0      5.4757    
         TOTAL TIME 1.72800E+08 2.88000E+06  48000.      2000.0      5.4757    


end timestep

