                                   MODFLOW 6
                U.S. GEOLOGICAL SURVEY MODULAR HYDROLOGIC MODEL
                       GROUNDWATER TRANSPORT MODEL (GWT)
                VERSION 6.5.0.dev0+prt (preliminary) 10/07/2023
                               ***DEVELOP MODE***

   MODFLOW 6 compiled Oct 07 2023 02:19:02 with Intel(R) Fortran Intel(R) 64
   Compiler Classic for applications running on Intel(R) 64, Version 2021.7.0
                             Build 20220726_000000

This software is preliminary or provisional and is subject to 
revision. It is being provided to meet the need for timely best 
science. The software has not received final approval by the U.S. 
Geological Survey (USGS). No warranty, expressed or implied, is made 
by the USGS or the U.S. Government as to the functionality of the 
software and related material nor shall the fact of release 
constitute any such warranty. The software is provided on the 
condition that neither the USGS nor the U.S. Government shall be held 
liable for any damages resulting from the authorized or unauthorized 
use of the software.


As a work of the United States Government, this USGS product is 
in the public domain within the United States. You can copy, 
modify, distribute, and perform the work, even for commercial 
purposes, all without asking permission. Additionally, USGS 
waives copyright and related rights in the work worldwide 
through CC0 1.0 Universal Public Domain Dedication 
(https://creativecommons.org/publicdomain/zero/1.0/).

The following GNU Lesser General Public License (LGPL) libraries
are used in this USGS product:

    SPARSKIT version 2.0
      ilut, luson, and qsplit 
      (https://www-users.cse.umn.edu/~saad/software/SPARSKIT/)

    RCM - Reverse Cuthill McKee Ordering
      (https://people.math.sc.edu/Burkardt/f_src/rcm/rcm.html)

    BLAS - Basic Linear Algebra Subprograms Level 1
      (https://people.math.sc.edu/Burkardt/f_src/blas1_d/blas1_d.html)

    SPARSEKIT - Sparse Matrix Utility Package
      amux, dperm, dvperm, rperm, and cperm
      (https://people.sc.fsu.edu/~jburkardt/f77_src/sparsekit/sparsekit.html)

The following BSD-3 License libraries are used in this USGS product:

    Modern Fortran DAG Library
      Copyright (c) 2018, Jacob Williams
      All rights reserved.
      (https://github.com/jacobwilliams/daglib)

MODFLOW 6 compiler options: /Isrc\libmf6core.a.p /Isrc /I..\src
/Isrc\libmf6_external.a.p /MTd /nologo /warn:general /warn:truncated_source
/stand:f08 /Zi /traceback /O2 /fpe:0 /heap-arrays:0 /traceback /fpp
/Qdiag-disable:7416 /Qdiag-disable:7025 /Qdiag-disable:5268
/Fdsrc\libmf6core.a.p\Utilities_compilerversion.F90.pdb
/module:src\libmf6core.a.p
/Fosrc/libmf6core.a.p/Utilities_compilerversion.F90.obj /c

System command used to initiate simulation:
c:\Users\portega\anaconda3\envs\mf6rtm\python.exe -m ipykernel_launcher --f=c:\Users\portega\AppData\Roaming\jupyter\runtime\kernel-v2-17404w7nug58txkWt.json

MODFLOW was compiled using uniform precision.

Real Variables
  KIND: 8
  TINY (smallest non-zero value):    2.225074-308
  HUGE (largest value):    1.797693+308
  PRECISION: 15
  SIZE IN BITS: 64

Integer Variables
  KIND: 4
  HUGE (largest value): 2147483647
  SIZE IN BITS: 32

Long Integer Variables
  KIND: 8
  HUGE (largest value): 9223372036854775807
  SIZE IN BITS: 64

Logical Variables
  KIND: 4
  SIZE IN BITS: 32
 
 NAMEFILE OPTIONS:
 END NAMEFILE OPTIONS:

 DIS -- STRUCTURED GRID DISCRETIZATION PACKAGE, VERSION 2 : 3/27/2014 - INPUT READ FROM MEMPATH: __INPUT__/CA/DIS                                  


 DSP-- DISPERSION PACKAGE, VERSION 1, 1/24/2018 INPUT READ FROM MEMPATH: __INPUT__/CA/DSP                                  


 Setting Discretization Options
    Model length unit [0=UND, 1=FEET, 2=METERS, 3=CENTIMETERS] set as 2
 End Setting Discretization Options

 Setting Discretization Dimensions
    NLAY = 10
    NROW = 1
    NCOL = 25
 End Setting Discretization Dimensions

 Setting Discretization Griddata
    DELR set from input file
    DELC set from input file
    TOP set from input file
    BOTM set from input file
    IDOMAIN set from input file
 End Setting Discretization Griddata


 FMI -- FLOW MODEL INTERFACE,' VERSION 2, 8/17/2023
  FLOWS PROVIDED BY A GWF MODEL IN THIS SIMULATION

 ADV-- ADVECTION PACKAGE, VERSION 1, 8/25/2017 INPUT READ FROM UNIT 1372


 # File generated by Flopy version 3.5.0.dev0 on 07/12/2024 at 15:45:50.
 PROCESSING ADVECTION OPTIONS
    ADVECTION WEIGHTING SCHEME HAS BEEN SET TO: TVD
 END OF ADVECTION OPTIONS
 Setting DSP Options
    XT3D formulation [0=INACTIVE, 1=ACTIVE, 3=ACTIVE RHS] set to: 0
 End Setting DSP Options

 Setting DSP Griddata
    ALH set from input file
    ATH1 set from input file
    ATV set from input file
 End Setting DSP Griddata


 CNC   -- CNC PACKAGE, VERSION 8, 2/22/2014 INPUT READ FROM UNIT 1406
 # File generated by Flopy version 3.5.0.dev0 on 07/12/2024 at 15:45:50.

 PROCESSING CNC OPTIONS
    CNC FLOWS WILL BE PRINTED TO LISTING FILE.
    FLOWS WILL BE SAVED TO BUDGET FILE SPECIFIED IN OUTPUT CONTROL
 END OF CNC OPTIONS

 PROCESSING CNC DIMENSIONS
    MAXBOUND =       7
 END OF CNC DIMENSIONS

 IC -- INITIAL CONDITIONS PACKAGE, VERSION 8, 3/28/2015 INPUT READ FROM UNIT 1370
 # File generated by Flopy version 3.5.0.dev0 on 07/12/2024 at 15:45:50.
 PROCESSING GRIDDATA

 OPENED Ca.ic_strt_layer1.txt
 FILE TYPE:OPEN/CLOSE   UNIT 2008   STATUS:OLD                 
 FORMAT:FORMATTED              ACCESS:SEQUENTIAL          
 ACTION:READ                


 OPENED Ca.ic_strt_layer2.txt
 FILE TYPE:OPEN/CLOSE   UNIT 2009   STATUS:OLD                 
 FORMAT:FORMATTED              ACCESS:SEQUENTIAL          
 ACTION:READ                


 OPENED Ca.ic_strt_layer3.txt
 FILE TYPE:OPEN/CLOSE   UNIT 2010   STATUS:OLD                 
 FORMAT:FORMATTED              ACCESS:SEQUENTIAL          
 ACTION:READ                


 OPENED Ca.ic_strt_layer4.txt
 FILE TYPE:OPEN/CLOSE   UNIT 2011   STATUS:OLD                 
 FORMAT:FORMATTED              ACCESS:SEQUENTIAL          
 ACTION:READ                


 OPENED Ca.ic_strt_layer5.txt
 FILE TYPE:OPEN/CLOSE   UNIT 2012   STATUS:OLD                 
 FORMAT:FORMATTED              ACCESS:SEQUENTIAL          
 ACTION:READ                


 OPENED Ca.ic_strt_layer6.txt
 FILE TYPE:OPEN/CLOSE   UNIT 2013   STATUS:OLD                 
 FORMAT:FORMATTED              ACCESS:SEQUENTIAL          
 ACTION:READ                


 OPENED Ca.ic_strt_layer7.txt
 FILE TYPE:OPEN/CLOSE   UNIT 2014   STATUS:OLD                 
 FORMAT:FORMATTED              ACCESS:SEQUENTIAL          
 ACTION:READ                


 OPENED Ca.ic_strt_layer8.txt
 FILE TYPE:OPEN/CLOSE   UNIT 2015   STATUS:OLD                 
 FORMAT:FORMATTED              ACCESS:SEQUENTIAL          
 ACTION:READ                


 OPENED Ca.ic_strt_layer9.txt
 FILE TYPE:OPEN/CLOSE   UNIT 2016   STATUS:OLD                 
 FORMAT:FORMATTED              ACCESS:SEQUENTIAL          
 ACTION:READ                


 OPENED Ca.ic_strt_layer10.txt
 FILE TYPE:OPEN/CLOSE   UNIT 2017   STATUS:OLD                 
 FORMAT:FORMATTED              ACCESS:SEQUENTIAL          
 ACTION:READ                

 END PROCESSING GRIDDATA

 MST -- MOBILE STORAGE AND TRANSFER PACKAGE, VERSION 1, 7/29/2020 INPUT READ FROM UNIT 1371


 # File generated by Flopy version 3.5.0.dev0 on 07/12/2024 at 15:45:50.
 PROCESSING MOBILE STORAGE AND TRANSFER OPTIONS
 END OF MOBILE STORAGE AND TRANSFER OPTIONS
 PROCESSING GRIDDATA

 OPENED Ca.mst_porosity.txt
 FILE TYPE:OPEN/CLOSE   UNIT 2018   STATUS:OLD                 
 FORMAT:FORMATTED              ACCESS:SEQUENTIAL          
 ACTION:READ                

 END PROCESSING GRIDDATA

 SSM -- SOURCE-SINK MIXING PACKAGE, VERSION 1, 8/25/2017 INPUT READ FROM UNIT 1404


 # File generated by Flopy version 3.5.0.dev0 on 07/12/2024 at 15:45:50.
 PROCESSING SSM OPTIONS
    SSM FLOW INFORMATION WILL BE PRINTED TO LISTING FILE WHENEVER ICBCFL IS NOT ZERO.
    CELL-BY-CELL FLOW INFORMATION WILL BE SAVED TO BINARY FILE WHENEVER ICBCFL IS NOT ZERO.
 END OF SSM OPTIONS

 OPENED Ca.ssm_sources.txt
 FILE TYPE:OPEN/CLOSE   UNIT 2019   STATUS:OLD                 
 FORMAT:FORMATTED              ACCESS:SEQUENTIAL          
 ACTION:READ                

 PROCESSING SOURCES
 AUX SOURCE DETECTED.
    USING AUX COLUMN 6 IN PACKAGE CHD
 END PROCESSING SOURCES
 OPTIONAL FILEINPUT BLOCK NOT FOUND.  CONTINUING.
      THE LAST TIME STEP WILL BE PRINTED
      THE LAST TIME STEP WILL BE PRINTED
 # File generated by Flopy version 3.5.0.dev0 on 07/12/2024 at 15:45:50.

 PROCESSING OC OPTIONS

    BUDGET INFORMATION WILL BE WRITTEN TO:
      UNIT NUMBER: 2020
      FILE NAME: Ca.cbb

 OPENED Ca.cbb
 FILE TYPE:DATA(BINARY)   UNIT 2020   STATUS:REPLACE             
 FORMAT:UNFORMATTED            ACCESS:STREAM              
 ACTION:READWRITE           

    CONCENTRATION INFORMATION WILL BE WRITTEN TO:
      UNIT NUMBER: 2021
      FILE NAME: Ca.ucn

 OPENED Ca.ucn
 FILE TYPE:DATA(BINARY)   UNIT 2021   STATUS:REPLACE             
 FORMAT:UNFORMATTED            ACCESS:STREAM              
 ACTION:READWRITE           

 END OF OC OPTIONS

start timestep kper="1" kstp="1" mode="normal"


 BEGIN READING OUTPUT CONTROL FOR STRESS PERIOD 1
      ALL TIME STEPS WILL BE SAVED
      ALL TIME STEPS WILL BE SAVED
      ALL TIME STEPS WILL BE PRINTED
      ALL TIME STEPS WILL BE PRINTED

 END READING OUTPUT CONTROL FOR STRESS PERIOD 1

 OPENED Ca.cnc_stress_period_data_1.txt
 FILE TYPE:OPEN/CLOSE   UNIT 2139   STATUS:OLD                 
 FORMAT:FORMATTED              ACCESS:SEQUENTIAL          
 ACTION:READ                

 UBDSV06 SAVING  SOURCE-SINK MIX IN MODEL CA               PACKAGE CA              CONNECTED TO MODEL CA               PACKAGE SSM              ON UNIT   2020 AT TIME STEP      1, STRESS PERIOD      1
 UBDSV06 SAVING              CNC IN MODEL CA               PACKAGE CA              CONNECTED TO MODEL CA               PACKAGE CNC              ON UNIT   2020 AT TIME STEP      1, STRESS PERIOD      1

 SSM PACKAGE (SSM) FLOW RATES   PERIOD      1   STEP        1
 ------------------------------------------------------------------------------------------------
   NUMBER   CELLID                   BOUND Q        SSM CONC          RATE         PACKAGE NAME  
 ------------------------------------------------------------------------------------------------
     1      (1,1,1)               2.08333361E-02  10.768065       0.22433471           CHD       
     2      (2,1,1)               2.08333361E-02  10.768065       0.22433471           CHD       
     3      (3,1,1)               2.08333361E-02  10.768065       0.22433471           CHD       
     4      (4,1,1)               0.0000000       0.0000000       0.0000000            CHD       
     5      (5,1,1)               0.0000000       0.0000000       0.0000000            CHD       
     6      (6,1,1)               0.0000000       0.0000000       0.0000000            CHD       
     7      (7,1,1)               0.0000000       0.0000000       0.0000000            CHD       
     8      (8,1,1)               0.0000000       0.0000000       0.0000000            CHD       
     9      (9,1,1)               0.0000000       0.0000000       0.0000000            CHD       
     10     (10,1,1)              0.0000000       0.0000000       0.0000000            CHD       
     11     (1,1,25)             -2.08333402E-02  6.9068073      -0.14389187           CHD       
     12     (2,1,25)             -2.08333402E-02  6.9068073      -0.14389187           CHD       
     13     (3,1,25)             -2.08333402E-02  6.9068073      -0.14389187           CHD       
     14     (4,1,25)             -2.08333403E-02  6.9068073      -0.14389187           CHD       
     15     (5,1,25)             -2.08333403E-02  6.9068073      -0.14389187           CHD       
     16     (6,1,25)             -2.08333403E-02  6.9068073      -0.14389187           CHD       
     17     (7,1,25)             -2.08333403E-02  6.9068073      -0.14389187           CHD       
     18     (8,1,25)             -2.08333403E-02  6.9068073      -0.14389187           CHD       
     19     (9,1,25)             -2.08333403E-02  6.9068073      -0.14389187           CHD       
     20     (10,1,25)            -2.08333403E-02  6.9068073      -0.14389187           CHD       
 ------------------------------------------------------------------------------------------------




 CNC PACKAGE (CNC) FLOW RATES   PERIOD      1   STEP        1
 -----------------------------------------------
   NUMBER   CELLID                    RATE      
 -----------------------------------------------
     1      (4,1,1)               8.58798324E-02
     2      (5,1,1)               0.14356816    
     3      (6,1,1)               0.14362564    
     4      (7,1,1)               0.14364919    
     5      (8,1,1)               0.14365892    
     6      (9,1,1)               0.14366285    
     7      (10,1,1)              0.14366424    
 -----------------------------------------------



1
  CONCENTRATION IN LAYER   1 AT END OF TIME STEP   1 IN STRESS PERIOD    1
  ---------------------------------------------------------------------------

                1               2               3               4               5               6               7               8               9              10
               11              12              13              14              15              16              17              18              19              20
               21              22              23              24              25
 ................................................................................................................................................................
   1  11.64310092     7.726456813     6.983874693     6.913644049     6.907442417     6.906871276     6.906793210     6.906803860     6.906806713     6.906807339    
      6.906807368     6.906807353     6.906807328     6.906807318     6.906807321     6.906807325     6.906807323     6.906807318     6.906807315     6.906807317    
      6.906807321     6.906807327     6.906807333     6.906807340     6.906807342    
1
  CONCENTRATION IN LAYER   2 AT END OF TIME STEP   1 IN STRESS PERIOD    1
  ---------------------------------------------------------------------------

                1               2               3               4               5               6               7               8               9              10
               11              12              13              14              15              16              17              18              19              20
               21              22              23              24              25
 ................................................................................................................................................................
   1  11.20387874     7.625044359     6.975402140     6.913059304     6.907407711     6.906866473     6.906788846     6.906803588     6.906806680     6.906807361    
      6.906807387     6.906807357     6.906807315     6.906807300     6.906807306     6.906807313     6.906807310     6.906807302     6.906807297     6.906807300    
      6.906807308     6.906807318     6.906807328     6.906807339     6.906807342    
1
  CONCENTRATION IN LAYER   3 AT END OF TIME STEP   1 IN STRESS PERIOD    1
  ---------------------------------------------------------------------------

                1               2               3               4               5               6               7               8               9              10
               11              12              13              14              15              16              17              18              19              20
               21              22              23              24              25
 ................................................................................................................................................................
   1  9.965085321     7.410599715     6.960659359     6.912068600     6.907345995     6.906856269     6.906783434     6.906803298     6.906806641     6.906807397    
      6.906807417     6.906807362     6.906807294     6.906807272     6.906807284     6.906807296     6.906807290     6.906807277     6.906807269     6.906807275    
      6.906807288     6.906807305     6.906807319     6.906807337     6.906807342    
1
  CONCENTRATION IN LAYER   4 AT END OF TIME STEP   1 IN STRESS PERIOD    1
  ---------------------------------------------------------------------------

                1               2               3               4               5               6               7               8               9              10
               11              12              13              14              15              16              17              18              19              20
               21              22              23              24              25
 ................................................................................................................................................................
   1  6.899537640     7.109683324     6.945903799     6.910968623     6.907267038     6.906842352     6.906780375     6.906803235     6.906806628     6.906807431    
      6.906807446     6.906807368     6.906807276     6.906807249     6.906807267     6.906807284     6.906807276     6.906807256     6.906807246     6.906807253    
      6.906807271     6.906807293     6.906807311     6.906807335     6.906807342    
1
  CONCENTRATION IN LAYER   5 AT END OF TIME STEP   1 IN STRESS PERIOD    1
  ---------------------------------------------------------------------------

                1               2               3               4               5               6               7               8               9              10
               11              12              13              14              15              16              17              18              19              20
               21              22              23              24              25
 ................................................................................................................................................................
   1  6.899537640     6.988667031     6.929797742     6.909766522     6.907177598     6.906828176     6.906780586     6.906803461     6.906806653     6.906807451    
      6.906807464     6.906807372     6.906807266     6.906807237     6.906807260     6.906807280     6.906807270     6.906807246     6.906807233     6.906807241    
      6.906807262     6.906807286     6.906807306     6.906807333     6.906807342    
1
  CONCENTRATION IN LAYER   6 AT END OF TIME STEP   1 IN STRESS PERIOD    1
  ---------------------------------------------------------------------------

                1               2               3               4               5               6               7               8               9              10
               11              12              13              14              15              16              17              18              19              20
               21              22              23              24              25
 ................................................................................................................................................................
   1  6.899537640     6.939951155     6.919037213     6.908731447     6.907089180     6.906816676     6.906783333     6.906803909     6.906806713     6.906807459    
      6.906807470     6.906807375     6.906807265     6.906807235     6.906807259     6.906807281     6.906807270     6.906807245     6.906807231     6.906807238    
      6.906807259     6.906807284     6.906807304     6.906807331     6.906807342    
1
  CONCENTRATION IN LAYER   7 AT END OF TIME STEP   1 IN STRESS PERIOD    1
  ---------------------------------------------------------------------------

                1               2               3               4               5               6               7               8               9              10
               11              12              13              14              15              16              17              18              19              20
               21              22              23              24              25
 ................................................................................................................................................................
   1  6.899537640     6.920287836     6.912961556     6.907981794     6.907011985     6.906809331     6.906787400     6.906804459     6.906806794     6.906807455    
      6.906807467     6.906807374     6.906807268     6.906807239     6.906807263     6.906807284     6.906807274     6.906807249     6.906807235     6.906807242    
      6.906807261     6.906807285     6.906807304     6.906807331     6.906807342    
1
  CONCENTRATION IN LAYER   8 AT END OF TIME STEP   1 IN STRESS PERIOD    1
  ---------------------------------------------------------------------------

                1               2               3               4               5               6               7               8               9              10
               11              12              13              14              15              16              17              18              19              20
               21              22              23              24              25
 ................................................................................................................................................................
   1  6.899537640     6.912360091     6.909808123     6.907508466     6.906951585     6.906806262     6.906791670     6.906804994     6.906806876     6.906807443    
      6.906807454     6.906807372     6.906807276     6.906807249     6.906807271     6.906807290     6.906807280     6.906807258     6.906807245     6.906807251    
      6.906807268     6.906807290     6.906807307     6.906807332     6.906807342    
1
  CONCENTRATION IN LAYER   9 AT END OF TIME STEP   1 IN STRESS PERIOD    1
  ---------------------------------------------------------------------------

                1               2               3               4               5               6               7               8               9              10
               11              12              13              14              15              16              17              18              19              20
               21              22              23              24              25
 ................................................................................................................................................................
   1  6.899537640     6.909215314     6.908303810     6.907237515     6.906909943     6.906806469     6.906795236     6.906805413     6.906806942     6.906807420    
      6.906807432     6.906807368     6.906807289     6.906807267     6.906807283     6.906807298     6.906807291     6.906807273     6.906807262     6.906807267    
      6.906807281     6.906807299     6.906807313     6.906807333     6.906807342    
1
  CONCENTRATION IN LAYER  10 AT END OF TIME STEP   1 IN STRESS PERIOD    1
  ---------------------------------------------------------------------------

                1               2               3               4               5               6               7               8               9              10
               11              12              13              14              15              16              17              18              19              20
               21              22              23              24              25
 ................................................................................................................................................................
   1  6.899537640     6.908117804     6.907711054     6.907115802     6.906888335     6.906807914     6.906797383     6.906805650     6.906806973     6.906807378    
      6.906807393     6.906807360     6.906807313     6.906807298     6.906807306     6.906807315     6.906807312     6.906807302     6.906807295     6.906807298    
      6.906807305     6.906807316     6.906807325     6.906807336     6.906807342    

 CONCENTRATION WILL BE SAVED ON UNIT 2021 AT END OF TIME STEP    1, STRESS PERIOD    1


  MASS BUDGET FOR ENTIRE MODEL AT END OF TIME STEP    1, STRESS PERIOD   1
  ---------------------------------------------------------------------------------------------------

     CUMULATIVE MASS      M       RATES FOR THIS TIME STEP      M/T          PACKAGE NAME    
     ------------------                 ------------------------                     ----------------

           IN:                                      IN:
           ---                                      ---
     STORAGE-AQUEOUS =       5.0660E-03       STORAGE-AQUEOUS =       5.0660E-04     MST                              
                 CHD =           6.7300                   CHD =           0.6730     SSM_CHD                          
                 CNC =          10.0525                   CNC =           1.0053     CNC                              

            TOTAL IN =          16.7877              TOTAL IN =           1.6788

          OUT:                                     OUT:
          ----                                     ----
     STORAGE-AQUEOUS =           1.8233       STORAGE-AQUEOUS =           0.1823     MST                              
                 CHD =          14.3889                   CHD =           1.4389     SSM_CHD                          
                 CNC =           0.5755                   CNC =       5.7546E-02     CNC                              

           TOTAL OUT =          16.7877             TOTAL OUT =           1.6788

            IN - OUT =       2.5778E-09              IN - OUT =       2.5778E-10

 PERCENT DISCREPANCY =           0.00     PERCENT DISCREPANCY =           0.00




         TIME SUMMARY AT END OF TIME STEP    1 IN STRESS PERIOD    1
                    SECONDS     MINUTES      HOURS       DAYS        YEARS
                    -----------------------------------------------------------
   TIME STEP LENGTH 8.64000E+05  14400.      240.00      10.000     2.73785E-02
 STRESS PERIOD TIME 8.64000E+05  14400.      240.00      10.000     2.73785E-02
         TOTAL TIME 8.64000E+05  14400.      240.00      10.000     2.73785E-02


end timestep


start timestep kper="1" kstp="2" mode="normal"

 UBDSV06 SAVING  SOURCE-SINK MIX IN MODEL CA               PACKAGE CA              CONNECTED TO MODEL CA               PACKAGE SSM              ON UNIT   2020 AT TIME STEP      2, STRESS PERIOD      1
 UBDSV06 SAVING              CNC IN MODEL CA               PACKAGE CA              CONNECTED TO MODEL CA               PACKAGE CNC              ON UNIT   2020 AT TIME STEP      2, STRESS PERIOD      1

 SSM PACKAGE (SSM) FLOW RATES   PERIOD      1   STEP        2
 ------------------------------------------------------------------------------------------------
   NUMBER   CELLID                   BOUND Q        SSM CONC          RATE         PACKAGE NAME  
 ------------------------------------------------------------------------------------------------
     1      (1,1,1)               2.08333319E-02  10.768065       0.22433466           CHD       
     2      (2,1,1)               2.08333319E-02  10.768065       0.22433466           CHD       
     3      (3,1,1)               2.08333319E-02  10.768065       0.22433466           CHD       
     4      (4,1,1)               0.0000000       0.0000000       0.0000000            CHD       
     5      (5,1,1)               0.0000000       0.0000000       0.0000000            CHD       
     6      (6,1,1)               0.0000000       0.0000000       0.0000000            CHD       
     7      (7,1,1)               0.0000000       0.0000000       0.0000000            CHD       
     8      (8,1,1)               0.0000000       0.0000000       0.0000000            CHD       
     9      (9,1,1)               0.0000000       0.0000000       0.0000000            CHD       
     10     (10,1,1)              0.0000000       0.0000000       0.0000000            CHD       
     11     (1,1,25)             -2.08333370E-02  6.9068073      -0.14389184           CHD       
     12     (2,1,25)             -2.08333370E-02  6.9068073      -0.14389184           CHD       
     13     (3,1,25)             -2.08333370E-02  6.9068073      -0.14389184           CHD       
     14     (4,1,25)             -2.08333370E-02  6.9068073      -0.14389184           CHD       
     15     (5,1,25)             -2.08333370E-02  6.9068073      -0.14389185           CHD       
     16     (6,1,25)             -2.08333370E-02  6.9068073      -0.14389185           CHD       
     17     (7,1,25)             -2.08333370E-02  6.9068073      -0.14389185           CHD       
     18     (8,1,25)             -2.08333370E-02  6.9068073      -0.14389185           CHD       
     19     (9,1,25)             -2.08333370E-02  6.9068073      -0.14389185           CHD       
     20     (10,1,25)            -2.08333370E-02  6.9068073      -0.14389185           CHD       
 ------------------------------------------------------------------------------------------------




 CNC PACKAGE (CNC) FLOW RATES   PERIOD      1   STEP        2
 -----------------------------------------------
   NUMBER   CELLID                    RATE      
 -----------------------------------------------
     1      (4,1,1)              -0.28008973    
     2      (5,1,1)               0.14141112    
     3      (6,1,1)               0.14260601    
     4      (7,1,1)               0.14317332    
     5      (8,1,1)               0.14343614    
     6      (9,1,1)               0.14355306    
     7      (10,1,1)              0.14359736    
 -----------------------------------------------



1
  CONCENTRATION IN LAYER   1 AT END OF TIME STEP   2 IN STRESS PERIOD    1
  ---------------------------------------------------------------------------

                1               2               3               4               5               6               7               8               9              10
               11              12              13              14              15              16              17              18              19              20
               21              22              23              24              25
 ................................................................................................................................................................
   1  14.95305910     8.868614366     7.154475258     6.934997053     6.909978984     6.907160715     6.906827471     6.906804862     6.906805101     6.906807317    
      6.906807365     6.906807385     6.906807335     6.906807312     6.906807305     6.906807300     6.906807295     6.906807291     6.906807291     6.906807294    
      6.906807301     6.906807311     6.906807321     6.906807335     6.906807341    
1
  CONCENTRATION IN LAYER   2 AT END OF TIME STEP   2 IN STRESS PERIOD    1
  ---------------------------------------------------------------------------

                1               2               3               4               5               6               7               8               9              10
               11              12              13              14              15              16              17              18              19              20
               21              22              23              24              25
 ................................................................................................................................................................
   1  14.02407914     8.611001816     7.128490742     6.932829384     6.909794501     6.907140922     6.906822859     6.906807248     6.906804869     6.906807072    
      6.906807489     6.906807379     6.906807328     6.906807306     6.906807293     6.906807283     6.906807276     6.906807273     6.906807274     6.906807279    
      6.906807289     6.906807301     6.906807315     6.906807334     6.906807341    
1
  CONCENTRATION IN LAYER   3 AT END OF TIME STEP   2 IN STRESS PERIOD    1
  ---------------------------------------------------------------------------

                1               2               3               4               5               6               7               8               9              10
               11              12              13              14              15              16              17              18              19              20
               21              22              23              24              25
 ................................................................................................................................................................
   1  11.70080473     8.103970115     7.084547545     6.929176282     6.909466991     6.907103607     6.906817780     6.906809917     6.906804590     6.906807049    
      6.906807482     6.906807360     6.906807320     6.906807297     6.906807276     6.906807257     6.906807246     6.906807244     6.906807248     6.906807257    
      6.906807269     6.906807286     6.906807305     6.906807331     6.906807341    
1
  CONCENTRATION IN LAYER   4 AT END OF TIME STEP   2 IN STRESS PERIOD    1
  ---------------------------------------------------------------------------

                1               2               3               4               5               6               7               8               9              10
               11              12              13              14              15              16              17              18              19              20
               21              22              23              24              25
 ................................................................................................................................................................
   1  6.899537640     7.455791863     7.040830558     6.925063324     6.909054600     6.907055454     6.906816824     6.906808612     6.906804736     6.906807116    
      6.906807472     6.906807346     6.906807315     6.906807290     6.906807261     6.906807235     6.906807220     6.906807219     6.906807225     6.906807236    
      6.906807251     6.906807272     6.906807294     6.906807327     6.906807340    
1
  CONCENTRATION IN LAYER   5 AT END OF TIME STEP   2 IN STRESS PERIOD    1
  ---------------------------------------------------------------------------

                1               2               3               4               5               6               7               8               9              10
               11              12              13              14              15              16              17              18              19              20
               21              22              23              24              25
 ................................................................................................................................................................
   1  6.899537640     7.155588345     6.991243646     6.920408571     6.908602290     6.907004538     6.906816706     6.906807088     6.906804670     6.906807169    
      6.906807469     6.906807340     6.906807312     6.906807286     6.906807253     6.906807223     6.906807206     6.906807205     6.906807212     6.906807224    
      6.906807240     6.906807262     6.906807287     6.906807324     6.906807340    
1
  CONCENTRATION IN LAYER   6 AT END OF TIME STEP   2 IN STRESS PERIOD    1
  ---------------------------------------------------------------------------

                1               2               3               4               5               6               7               8               9              10
               11              12              13              14              15              16              17              18              19              20
               21              22              23              24              25
 ................................................................................................................................................................
   1  6.899537640     7.018540127     6.955362500     6.916158346     6.908165014     6.906957298     6.906816118     6.906806330     6.906804658     6.906807190    
      6.906807467     6.906807340     6.906807313     6.906807286     6.906807251     6.906807220     6.906807202     6.906807201     6.906807208     6.906807220    
      6.906807236     6.906807259     6.906807284     6.906807322     6.906807340    
1
  CONCENTRATION IN LAYER   7 AT END OF TIME STEP   2 IN STRESS PERIOD    1
  ---------------------------------------------------------------------------

                1               2               3               4               5               6               7               8               9              10
               11              12              13              14              15              16              17              18              19              20
               21              22              23              24              25
 ................................................................................................................................................................
   1  6.899537640     6.956695465     6.933305698     6.912857371     6.907790417     6.906918168     6.906815012     6.906806133     6.906804839     6.906807187    
      6.906807464     6.906807344     6.906807315     6.906807288     6.906807255     6.906807225     6.906807207     6.906807206     6.906807212     6.906807224    
      6.906807239     6.906807261     6.906807285     6.906807322     6.906807339    
1
  CONCENTRATION IN LAYER   8 AT END OF TIME STEP   2 IN STRESS PERIOD    1
  ---------------------------------------------------------------------------

                1               2               3               4               5               6               7               8               9              10
               11              12              13              14              15              16              17              18              19              20
               21              22              23              24              25
 ................................................................................................................................................................
   1  6.899537640     6.929171780     6.920929517     6.910608671     6.907505610     6.906889518     6.906812997     6.906806330     6.906805179     6.906807164    
      6.906807467     6.906807353     6.906807319     6.906807293     6.906807263     6.906807235     6.906807220     6.906807218     6.906807223     6.906807233    
      6.906807247     6.906807267     6.906807289     6.906807323     6.906807339    
1
  CONCENTRATION IN LAYER   9 AT END OF TIME STEP   2 IN STRESS PERIOD    1
  ---------------------------------------------------------------------------

                1               2               3               4               5               6               7               8               9              10
               11              12              13              14              15              16              17              18              19              20
               21              22              23              24              25
 ................................................................................................................................................................
   1  6.899537640     6.917301210     6.914593640     6.909259959     6.907318539     6.906871773     6.906809401     6.906806690     6.906805625     6.906807101    
      6.906807499     6.906807371     6.906807323     6.906807298     6.906807274     6.906807252     6.906807239     6.906807237     6.906807240     6.906807249    
      6.906807260     6.906807277     6.906807296     6.906807325     6.906807340    
1
  CONCENTRATION IN LAYER  10 AT END OF TIME STEP   2 IN STRESS PERIOD    1
  ---------------------------------------------------------------------------

                1               2               3               4               5               6               7               8               9              10
               11              12              13              14              15              16              17              18              19              20
               21              22              23              24              25
 ................................................................................................................................................................
   1  6.899537640     6.912901718     6.911968638     6.908633752     6.907227392     6.906863644     6.906806301     6.906805682     6.906806213     6.906806948    
      6.906807614     6.906807408     6.906807324     6.906807299     6.906807287     6.906807278     6.906807269     6.906807263     6.906807262     6.906807268    
      6.906807278     6.906807292     6.906807307     6.906807328     6.906807340    

 CONCENTRATION WILL BE SAVED ON UNIT 2021 AT END OF TIME STEP    2, STRESS PERIOD    1


  MASS BUDGET FOR ENTIRE MODEL AT END OF TIME STEP    2, STRESS PERIOD   1
  ---------------------------------------------------------------------------------------------------

     CUMULATIVE MASS      M       RATES FOR THIS TIME STEP      M/T          PACKAGE NAME    
     ------------------                 ------------------------                     ----------------

           IN:                                      IN:
           ---                                      ---
     STORAGE-AQUEOUS =           4.4216       STORAGE-AQUEOUS =           0.4417     MST                              
                 CHD =          13.4601                   CHD =           0.6730     SSM_CHD                          
                 CNC =          20.0200                   CNC =           0.9967     CNC                              

            TOTAL IN =          37.9017              TOTAL IN =           2.1114

          OUT:                                     OUT:
          ----                                     ----
     STORAGE-AQUEOUS =           4.3575       STORAGE-AQUEOUS =           0.2534     MST                              
                 CHD =          28.7781                   CHD =           1.4389     SSM_CHD                          
                 CNC =           4.7660                   CNC =           0.4191     CNC                              

           TOTAL OUT =          37.9017             TOTAL OUT =           2.1114

            IN - OUT =       2.8507E-09              IN - OUT =       2.7290E-11

 PERCENT DISCREPANCY =           0.00     PERCENT DISCREPANCY =           0.00




         TIME SUMMARY AT END OF TIME STEP    2 IN STRESS PERIOD    1
                    SECONDS     MINUTES      HOURS       DAYS        YEARS
                    -----------------------------------------------------------
   TIME STEP LENGTH 8.64000E+05  14400.      240.00      10.000     2.73785E-02
 STRESS PERIOD TIME 1.72800E+06  28800.      480.00      20.000     5.47570E-02
         TOTAL TIME 1.72800E+06  28800.      480.00      20.000     5.47570E-02


end timestep


start timestep kper="1" kstp="3" mode="normal"

 UBDSV06 SAVING  SOURCE-SINK MIX IN MODEL CA               PACKAGE CA              CONNECTED TO MODEL CA               PACKAGE SSM              ON UNIT   2020 AT TIME STEP      3, STRESS PERIOD      1
 UBDSV06 SAVING              CNC IN MODEL CA               PACKAGE CA              CONNECTED TO MODEL CA               PACKAGE CNC              ON UNIT   2020 AT TIME STEP      3, STRESS PERIOD      1

 SSM PACKAGE (SSM) FLOW RATES   PERIOD      1   STEP        3
 ------------------------------------------------------------------------------------------------
   NUMBER   CELLID                   BOUND Q        SSM CONC          RATE         PACKAGE NAME  
 ------------------------------------------------------------------------------------------------
     1      (1,1,1)               2.08333325E-02  10.768065       0.22433467           CHD       
     2      (2,1,1)               2.08333325E-02  10.768065       0.22433467           CHD       
     3      (3,1,1)               2.08333325E-02  10.768065       0.22433467           CHD       
     4      (4,1,1)               0.0000000       0.0000000       0.0000000            CHD       
     5      (5,1,1)               0.0000000       0.0000000       0.0000000            CHD       
     6      (6,1,1)               0.0000000       0.0000000       0.0000000            CHD       
     7      (7,1,1)               0.0000000       0.0000000       0.0000000            CHD       
     8      (8,1,1)               0.0000000       0.0000000       0.0000000            CHD       
     9      (9,1,1)               0.0000000       0.0000000       0.0000000            CHD       
     10     (10,1,1)              0.0000000       0.0000000       0.0000000            CHD       
     11     (1,1,25)             -2.08333362E-02  6.9068073      -0.14389184           CHD       
     12     (2,1,25)             -2.08333362E-02  6.9068073      -0.14389184           CHD       
     13     (3,1,25)             -2.08333362E-02  6.9068073      -0.14389184           CHD       
     14     (4,1,25)             -2.08333362E-02  6.9068073      -0.14389184           CHD       
     15     (5,1,25)             -2.08333362E-02  6.9068073      -0.14389184           CHD       
     16     (6,1,25)             -2.08333362E-02  6.9068073      -0.14389184           CHD       
     17     (7,1,25)             -2.08333362E-02  6.9068073      -0.14389184           CHD       
     18     (8,1,25)             -2.08333362E-02  6.9068073      -0.14389184           CHD       
     19     (9,1,25)             -2.08333362E-02  6.9068073      -0.14389184           CHD       
     20     (10,1,25)            -2.08333362E-02  6.9068073      -0.14389184           CHD       
 ------------------------------------------------------------------------------------------------




 CNC PACKAGE (CNC) FLOW RATES   PERIOD      1   STEP        3
 -----------------------------------------------
   NUMBER   CELLID                    RATE      
 -----------------------------------------------
     1      (4,1,1)              -0.51257535    
     2      (5,1,1)               0.13849949    
     3      (6,1,1)               0.14107202    
     4      (7,1,1)               0.14238286    
     5      (8,1,1)               0.14303115    
     6      (9,1,1)               0.14333632    
     7      (10,1,1)              0.14345667    
 -----------------------------------------------



1
  CONCENTRATION IN LAYER   1 AT END OF TIME STEP   3 IN STRESS PERIOD    1
  ---------------------------------------------------------------------------

                1               2               3               4               5               6               7               8               9              10
               11              12              13              14              15              16              17              18              19              20
               21              22              23              24              25
 ................................................................................................................................................................
   1  16.46324210     10.05032940     7.416550057     6.978824596     6.916450698     6.908047121     6.906950858     6.906814831     6.906804158     6.906805979    
      6.906807405     6.906807550     6.906807376     6.906807306     6.906807286     6.906807278     6.906807272     6.906807268     6.906807268     6.906807272    
      6.906807282     6.906807295     6.906807310     6.906807329     6.906807339    
1
  CONCENTRATION IN LAYER   2 AT END OF TIME STEP   3 IN STRESS PERIOD    1
  ---------------------------------------------------------------------------

                1               2               3               4               5               6               7               8               9              10
               11              12              13              14              15              16              17              18              19              20
               21              22              23              24              25
 ................................................................................................................................................................
   1  15.90205428     9.633421172     7.364327809     6.973698554     6.915932870     6.907989882     6.906945027     6.906815016     6.906803541     6.906805767    
      6.906807323     6.906807547     6.906807368     6.906807296     6.906807273     6.906807263     6.906807256     6.906807252     6.906807253     6.906807259    
      6.906807270     6.906807286     6.906807304     6.906807327     6.906807339    
1
  CONCENTRATION IN LAYER   3 AT END OF TIME STEP   3 IN STRESS PERIOD    1
  ---------------------------------------------------------------------------

                1               2               3               4               5               6               7               8               9              10
               11              12              13              14              15              16              17              18              19              20
               21              22              23              24              25
 ................................................................................................................................................................
   1  12.79153269     8.842945114     7.277412686     6.965051624     6.915007444     6.907884209     6.906935241     6.906814441     6.906802605     6.906805568    
      6.906807252     6.906807530     6.906807357     6.906807281     6.906807253     6.906807239     6.906807231     6.906807227     6.906807229     6.906807237    
      6.906807252     6.906807272     6.906807295     6.906807324     6.906807338    
1
  CONCENTRATION IN LAYER   4 AT END OF TIME STEP   3 IN STRESS PERIOD    1
  ---------------------------------------------------------------------------

                1               2               3               4               5               6               7               8               9              10
               11              12              13              14              15              16              17              18              19              20
               21              22              23              24              25
 ................................................................................................................................................................
   1  6.899537640     7.872571119     7.192416452     6.955197544     6.913829111     6.907745280     6.906923416     6.906812500     6.906801712     6.906805451    
      6.906807225     6.906807510     6.906807347     6.906807267     6.906807235     6.906807218     6.906807208     6.906807205     6.906807207     6.906807217    
      6.906807234     6.906807258     6.906807285     6.906807320     6.906807338    
1
  CONCENTRATION IN LAYER   5 AT END OF TIME STEP   3 IN STRESS PERIOD    1
  ---------------------------------------------------------------------------

                1               2               3               4               5               6               7               8               9              10
               11              12              13              14              15              16              17              18              19              20
               21              22              23              24              25
 ................................................................................................................................................................
   1  6.899537640     7.381436329     7.095509435     6.943982137     6.912525811     6.907591208     6.906910005     6.906810204     6.906801064     6.906805428    
      6.906807233     6.906807498     6.906807342     6.906807260     6.906807224     6.906807205     6.906807194     6.906807190     6.906807193     6.906807203    
      6.906807222     6.906807249     6.906807278     6.906807317     6.906807337    
1
  CONCENTRATION IN LAYER   6 AT END OF TIME STEP   3 IN STRESS PERIOD    1
  ---------------------------------------------------------------------------

                1               2               3               4               5               6               7               8               9              10
               11              12              13              14              15              16              17              18              19              20
               21              22              23              24              25
 ................................................................................................................................................................
   1  6.899537640     7.137237549     7.021396048     6.933402827     6.911244282     6.907439202     6.906895794     6.906808178     6.906800885     6.906805501    
      6.906807252     6.906807495     6.906807341     6.906807258     6.906807221     6.906807201     6.906807189     6.906807186     6.906807188     6.906807198    
      6.906807218     6.906807245     6.906807275     6.906807315     6.906807337    
1
  CONCENTRATION IN LAYER   7 AT END OF TIME STEP   3 IN STRESS PERIOD    1
  ---------------------------------------------------------------------------

                1               2               3               4               5               6               7               8               9              10
               11              12              13              14              15              16              17              18              19              20
               21              22              23              24              25
 ................................................................................................................................................................
   1  6.899537640     7.017748006     6.972969704     6.924831339     6.910122027     6.907304092     6.906881926     6.906806612     6.906801230     6.906805652    
      6.906807267     6.906807500     6.906807344     6.906807261     6.906807225     6.906807205     6.906807194     6.906807190     6.906807191     6.906807201    
      6.906807220     6.906807246     6.906807275     6.906807314     6.906807337    
1
  CONCENTRATION IN LAYER   8 AT END OF TIME STEP   3 IN STRESS PERIOD    1
  ---------------------------------------------------------------------------

                1               2               3               4               5               6               7               8               9              10
               11              12              13              14              15              16              17              18              19              20
               21              22              23              24              25
 ................................................................................................................................................................
   1  6.899537640     6.960391626     6.944227783     6.918702782     6.909248608     6.907196656     6.906869254     6.906805635     6.906802006     6.906805838    
      6.906807276     6.906807515     6.906807350     6.906807267     6.906807233     6.906807216     6.906807205     6.906807200     6.906807202     6.906807211    
      6.906807227     6.906807252     6.906807279     6.906807315     6.906807337    
1
  CONCENTRATION IN LAYER   9 AT END OF TIME STEP   3 IN STRESS PERIOD    1
  ---------------------------------------------------------------------------

                1               2               3               4               5               6               7               8               9              10
               11              12              13              14              15              16              17              18              19              20
               21              22              23              24              25
 ................................................................................................................................................................
   1  6.899537640     6.934017314     6.928675751     6.914920286     6.908664105     6.907123611     6.906857999     6.906805608     6.906802990     6.906805993    
      6.906807286     6.906807539     6.906807359     6.906807276     6.906807246     6.906807231     6.906807221     6.906807217     6.906807217     6.906807225    
      6.906807240     6.906807261     6.906807285     6.906807317     6.906807337    
1
  CONCENTRATION IN LAYER  10 AT END OF TIME STEP   3 IN STRESS PERIOD    1
  ---------------------------------------------------------------------------

                1               2               3               4               5               6               7               8               9              10
               11              12              13              14              15              16              17              18              19              20
               21              22              23              24              25
 ................................................................................................................................................................
   1  6.899537640     6.923764499     6.921975448     6.913139397     6.908374170     6.907086881     6.906851032     6.906805878     6.906803748     6.906806046    
      6.906807304     6.906807561     6.906807368     6.906807288     6.906807263     6.906807251     6.906807241     6.906807236     6.906807236     6.906807242    
      6.906807254     6.906807272     6.906807293     6.906807320     6.906807337    

 CONCENTRATION WILL BE SAVED ON UNIT 2021 AT END OF TIME STEP    3, STRESS PERIOD    1


  MASS BUDGET FOR ENTIRE MODEL AT END OF TIME STEP    3, STRESS PERIOD   1
  ---------------------------------------------------------------------------------------------------

     CUMULATIVE MASS      M       RATES FOR THIS TIME STEP      M/T          PACKAGE NAME    
     ------------------                 ------------------------                     ----------------

           IN:                                      IN:
           ---                                      ---
     STORAGE-AQUEOUS =          12.5073       STORAGE-AQUEOUS =           0.8086     MST                              
                 CHD =          20.1901                   CHD =           0.6730     SSM_CHD                          
                 CNC =          29.8739                   CNC =           0.9854     CNC                              

            TOTAL IN =          62.5713              TOTAL IN =           2.4670

          OUT:                                     OUT:
          ----                                     ----
     STORAGE-AQUEOUS =           8.1762       STORAGE-AQUEOUS =           0.3819     MST                              
                 CHD =          43.1673                   CHD =           1.4389     SSM_CHD                          
                 CNC =          11.2279                   CNC =           0.6462     CNC                              

           TOTAL OUT =          62.5713             TOTAL OUT =           2.4670

            IN - OUT =       2.7774E-09              IN - OUT =      -7.3368E-12

 PERCENT DISCREPANCY =           0.00     PERCENT DISCREPANCY =          -0.00




         TIME SUMMARY AT END OF TIME STEP    3 IN STRESS PERIOD    1
                    SECONDS     MINUTES      HOURS       DAYS        YEARS
                    -----------------------------------------------------------
   TIME STEP LENGTH 8.64000E+05  14400.      240.00      10.000     2.73785E-02
 STRESS PERIOD TIME 2.59200E+06  43200.      720.00      30.000     8.21355E-02
         TOTAL TIME 2.59200E+06  43200.      720.00      30.000     8.21355E-02


end timestep


start timestep kper="1" kstp="4" mode="normal"

 UBDSV06 SAVING  SOURCE-SINK MIX IN MODEL CA               PACKAGE CA              CONNECTED TO MODEL CA               PACKAGE SSM              ON UNIT   2020 AT TIME STEP      4, STRESS PERIOD      1
 UBDSV06 SAVING              CNC IN MODEL CA               PACKAGE CA              CONNECTED TO MODEL CA               PACKAGE CNC              ON UNIT   2020 AT TIME STEP      4, STRESS PERIOD      1

 SSM PACKAGE (SSM) FLOW RATES   PERIOD      1   STEP        4
 ------------------------------------------------------------------------------------------------
   NUMBER   CELLID                   BOUND Q        SSM CONC          RATE         PACKAGE NAME  
 ------------------------------------------------------------------------------------------------
     1      (1,1,1)               2.08333321E-02  10.768065       0.22433467           CHD       
     2      (2,1,1)               2.08333321E-02  10.768065       0.22433467           CHD       
     3      (3,1,1)               2.08333321E-02  10.768065       0.22433467           CHD       
     4      (4,1,1)               0.0000000       0.0000000       0.0000000            CHD       
     5      (5,1,1)               0.0000000       0.0000000       0.0000000            CHD       
     6      (6,1,1)               0.0000000       0.0000000       0.0000000            CHD       
     7      (7,1,1)               0.0000000       0.0000000       0.0000000            CHD       
     8      (8,1,1)               0.0000000       0.0000000       0.0000000            CHD       
     9      (9,1,1)               0.0000000       0.0000000       0.0000000            CHD       
     10     (10,1,1)              0.0000000       0.0000000       0.0000000            CHD       
     11     (1,1,25)             -2.08333356E-02  6.9068073      -0.14389184           CHD       
     12     (2,1,25)             -2.08333356E-02  6.9068073      -0.14389184           CHD       
     13     (3,1,25)             -2.08333356E-02  6.9068073      -0.14389184           CHD       
     14     (4,1,25)             -2.08333356E-02  6.9068073      -0.14389184           CHD       
     15     (5,1,25)             -2.08333356E-02  6.9068073      -0.14389184           CHD       
     16     (6,1,25)             -2.08333356E-02  6.9068073      -0.14389184           CHD       
     17     (7,1,25)             -2.08333356E-02  6.9068073      -0.14389184           CHD       
     18     (8,1,25)             -2.08333356E-02  6.9068073      -0.14389184           CHD       
     19     (9,1,25)             -2.08333356E-02  6.9068073      -0.14389184           CHD       
     20     (10,1,25)            -2.08333356E-02  6.9068073      -0.14389184           CHD       
 ------------------------------------------------------------------------------------------------




 CNC PACKAGE (CNC) FLOW RATES   PERIOD      1   STEP        4
 -----------------------------------------------
   NUMBER   CELLID                    RATE      
 -----------------------------------------------
     1      (4,1,1)              -0.65777156    
     2      (5,1,1)               0.13523825    
     3      (6,1,1)               0.13919826    
     4      (7,1,1)               0.14133247    
     5      (8,1,1)               0.14244570    
     6      (9,1,1)               0.14299470    
     7      (10,1,1)              0.14321862    
 -----------------------------------------------



1
  CONCENTRATION IN LAYER   1 AT END OF TIME STEP   4 IN STRESS PERIOD    1
  ---------------------------------------------------------------------------

                1               2               3               4               5               6               7               8               9              10
               11              12              13              14              15              16              17              18              19              20
               21              22              23              24              25
 ................................................................................................................................................................
   1  16.49823909     11.09505399     7.740206546     7.049245075     6.929174750     6.910102453     6.907264462     6.906861219     6.906807330     6.906803619    
      6.906805968     6.906807393     6.906807506     6.906807336     6.906807276     6.906807259     6.906807252     6.906807247     6.906807248     6.906807254    
      6.906807265     6.906807281     6.906807300     6.906807322     6.906807337    
1
  CONCENTRATION IN LAYER   2 AT END OF TIME STEP   4 IN STRESS PERIOD    1
  ---------------------------------------------------------------------------

                1               2               3               4               5               6               7               8               9              10
               11              12              13              14              15              16              17              18              19              20
               21              22              23              24              25
 ................................................................................................................................................................
   1  16.46307219     10.55534333     7.659693329     7.039964996     6.928082649     6.909967931     6.907248513     6.906860895     6.906806204     6.906802926    
      6.906805926     6.906807378     6.906807498     6.906807328     6.906807265     6.906807246     6.906807238     6.906807234     6.906807235     6.906807242    
      6.906807255     6.906807273     6.906807294     6.906807321     6.906807336    
1
  CONCENTRATION IN LAYER   3 AT END OF TIME STEP   4 IN STRESS PERIOD    1
  ---------------------------------------------------------------------------

                1               2               3               4               5               6               7               8               9              10
               11              12              13              14              15              16              17              18              19              20
               21              22              23              24              25
 ................................................................................................................................................................
   1  13.46317935     9.535031305     7.525673553     7.024186614     6.926112531     6.909717892     6.907218859     6.906859708     6.906804191     6.906801962    
      6.906805882     6.906807358     6.906807486     6.906807314     6.906807247     6.906807226     6.906807215     6.906807212     6.906807214     6.906807223    
      6.906807239     6.906807261     6.906807286     6.906807317     6.906807336    
1
  CONCENTRATION IN LAYER   4 AT END OF TIME STEP   4 IN STRESS PERIOD    1
  ---------------------------------------------------------------------------

                1               2               3               4               5               6               7               8               9              10
               11              12              13              14              15              16              17              18              19              20
               21              22              23              24              25
 ................................................................................................................................................................
   1  6.899537640     8.300193917     7.390940607     7.005751175     6.923566355     6.909384669     6.907179285     6.906857031     6.906801839     6.906801159    
      6.906805876     6.906807346     6.906807475     6.906807302     6.906807231     6.906807207     6.906807195     6.906807191     6.906807194     6.906807205    
      6.906807224     6.906807249     6.906807277     6.906807314     6.906807335    
1
  CONCENTRATION IN LAYER   5 AT END OF TIME STEP   4 IN STRESS PERIOD    1
  ---------------------------------------------------------------------------

                1               2               3               4               5               6               7               8               9              10
               11              12              13              14              15              16              17              18              19              20
               21              22              23              24              25
 ................................................................................................................................................................
   1  6.899537640     7.634668567     7.238155962     6.984621420     6.920715850     6.909008418     6.907134166     6.906852813     6.906799814     6.906800746    
      6.906805916     6.906807345     6.906807467     6.906807294     6.906807221     6.906807195     6.906807181     6.906807177     6.906807180     6.906807192    
      6.906807213     6.906807240     6.906807270     6.906807310     6.906807334    
1
  CONCENTRATION IN LAYER   6 AT END OF TIME STEP   4 IN STRESS PERIOD    1
  ---------------------------------------------------------------------------

                1               2               3               4               5               6               7               8               9              10
               11              12              13              14              15              16              17              18              19              20
               21              22              23              24              25
 ................................................................................................................................................................
   1  6.899537640     7.282264934     7.116737934     6.964214400     6.917867801     6.908629251     6.907088008     6.906847449     6.906798603     6.906800799    
      6.906805981     6.906807355     6.906807464     6.906807292     6.906807218     6.906807190     6.906807176     6.906807171     6.906807175     6.906807187    
      6.906807208     6.906807235     6.906807267     6.906807308     6.906807333    
1
  CONCENTRATION IN LAYER   7 AT END OF TIME STEP   4 IN STRESS PERIOD    1
  ---------------------------------------------------------------------------

                1               2               3               4               5               6               7               8               9              10
               11              12              13              14              15              16              17              18              19              20
               21              22              23              24              25
 ................................................................................................................................................................
   1  6.899537640     7.098866423     7.033686238     6.947172065     6.915320164     6.908284164     6.907045070     6.906841589     6.906798424     6.906801200    
      6.906806072     6.906807370     6.906807465     6.906807294     6.906807221     6.906807194     6.906807179     6.906807174     6.906807178     6.906807189    
      6.906807209     6.906807236     6.906807267     6.906807307     6.906807333    
1
  CONCENTRATION IN LAYER   8 AT END OF TIME STEP   4 IN STRESS PERIOD    1
  ---------------------------------------------------------------------------

                1               2               3               4               5               6               7               8               9              10
               11              12              13              14              15              16              17              18              19              20
               21              22              23              24              25
 ................................................................................................................................................................
   1  6.899537640     7.005525206     6.982133386     6.934596164     6.913293401     6.908003184     6.907008996     6.906835997     6.906799177     6.906801802    
      6.906806170     6.906807390     6.906807471     6.906807299     6.906807228     6.906807202     6.906807189     6.906807183     6.906807186     6.906807197    
      6.906807215     6.906807241     6.906807270     6.906807308     6.906807333    
1
  CONCENTRATION IN LAYER   9 AT END OF TIME STEP   4 IN STRESS PERIOD    1
  ---------------------------------------------------------------------------

                1               2               3               4               5               6               7               8               9              10
               11              12              13              14              15              16              17              18              19              20
               21              22              23              24              25
 ................................................................................................................................................................
   1  6.899537640     6.960298227     6.953214633     6.926562708     6.911909781     6.907806894     6.906982737     6.906831454     6.906800445     6.906802432    
      6.906806251     6.906807413     6.906807480     6.906807307     6.906807239     6.906807215     6.906807203     6.906807197     6.906807199     6.906807208    
      6.906807225     6.906807248     6.906807275     6.906807310     6.906807333    
1
  CONCENTRATION IN LAYER  10 AT END OF TIME STEP   4 IN STRESS PERIOD    1
  ---------------------------------------------------------------------------

                1               2               3               4               5               6               7               8               9              10
               11              12              13              14              15              16              17              18              19              20
               21              22              23              24              25
 ................................................................................................................................................................
   1  6.899537640     6.942075557     6.940354074     6.922729070     6.911215780     6.907706420     6.906968955     6.906828639     6.906801485     6.906802887    
      6.906806301     6.906807436     6.906807493     6.906807317     6.906807251     6.906807230     6.906807219     6.906807213     6.906807214     6.906807221    
      6.906807236     6.906807257     6.906807281     6.906807312     6.906807333    

 CONCENTRATION WILL BE SAVED ON UNIT 2021 AT END OF TIME STEP    4, STRESS PERIOD    1


  MASS BUDGET FOR ENTIRE MODEL AT END OF TIME STEP    4, STRESS PERIOD   1
  ---------------------------------------------------------------------------------------------------

     CUMULATIVE MASS      M       RATES FOR THIS TIME STEP      M/T          PACKAGE NAME    
     ------------------                 ------------------------                     ----------------

           IN:                                      IN:
           ---                                      ---
     STORAGE-AQUEOUS =          22.6662       STORAGE-AQUEOUS =           1.0159     MST                              
                 CHD =          26.9202                   CHD =           0.6730     SSM_CHD                          
                 CNC =          39.5994                   CNC =           0.9726     CNC                              

            TOTAL IN =          89.1858              TOTAL IN =           2.6615

          OUT:                                     OUT:
          ----                                     ----
     STORAGE-AQUEOUS =          12.5425       STORAGE-AQUEOUS =           0.4366     MST                              
                 CHD =          57.5565                   CHD =           1.4389     SSM_CHD                          
                 CNC =          19.0869                   CNC =           0.7859     CNC                              

           TOTAL OUT =          89.1858             TOTAL OUT =           2.6615

            IN - OUT =       2.7914E-09              IN - OUT =       1.4069E-12

 PERCENT DISCREPANCY =           0.00     PERCENT DISCREPANCY =           0.00




         TIME SUMMARY AT END OF TIME STEP    4 IN STRESS PERIOD    1
                    SECONDS     MINUTES      HOURS       DAYS        YEARS
                    -----------------------------------------------------------
   TIME STEP LENGTH 8.64000E+05  14400.      240.00      10.000     2.73785E-02
 STRESS PERIOD TIME 3.45600E+06  57600.      960.00      40.000     0.10951    
         TOTAL TIME 3.45600E+06  57600.      960.00      40.000     0.10951    


end timestep


start timestep kper="1" kstp="5" mode="normal"

 UBDSV06 SAVING  SOURCE-SINK MIX IN MODEL CA               PACKAGE CA              CONNECTED TO MODEL CA               PACKAGE SSM              ON UNIT   2020 AT TIME STEP      5, STRESS PERIOD      1
 UBDSV06 SAVING              CNC IN MODEL CA               PACKAGE CA              CONNECTED TO MODEL CA               PACKAGE CNC              ON UNIT   2020 AT TIME STEP      5, STRESS PERIOD      1

 SSM PACKAGE (SSM) FLOW RATES   PERIOD      1   STEP        5
 ------------------------------------------------------------------------------------------------
   NUMBER   CELLID                   BOUND Q        SSM CONC          RATE         PACKAGE NAME  
 ------------------------------------------------------------------------------------------------
     1      (1,1,1)               2.08333321E-02  10.768065       0.22433466           CHD       
     2      (2,1,1)               2.08333321E-02  10.768065       0.22433466           CHD       
     3      (3,1,1)               2.08333321E-02  10.768065       0.22433466           CHD       
     4      (4,1,1)               0.0000000       0.0000000       0.0000000            CHD       
     5      (5,1,1)               0.0000000       0.0000000       0.0000000            CHD       
     6      (6,1,1)               0.0000000       0.0000000       0.0000000            CHD       
     7      (7,1,1)               0.0000000       0.0000000       0.0000000            CHD       
     8      (8,1,1)               0.0000000       0.0000000       0.0000000            CHD       
     9      (9,1,1)               0.0000000       0.0000000       0.0000000            CHD       
     10     (10,1,1)              0.0000000       0.0000000       0.0000000            CHD       
     11     (1,1,25)             -2.08333353E-02  6.9068073      -0.14389183           CHD       
[...]
               21              22              23              24              25
 ................................................................................................................................................................
   1  6.899537640     7.621184998     8.652131355     9.471363941     10.00610317     10.32464248     10.51186452     10.61894734     10.67862479     10.71208900    
      10.73271018     10.74782776     10.76042037     10.77000933     10.77436625     10.77205088     10.76581049     10.75079771     10.72403307     10.68168203    
      10.62025445     10.53874899     10.43586588     10.31318728     10.18274096    

 CONCENTRATION WILL BE SAVED ON UNIT 2021 AT END OF TIME STEP  199, STRESS PERIOD    1


  MASS BUDGET FOR ENTIRE MODEL AT END OF TIME STEP  199, STRESS PERIOD   1
  ---------------------------------------------------------------------------------------------------

     CUMULATIVE MASS      M       RATES FOR THIS TIME STEP      M/T          PACKAGE NAME    
     ------------------                 ------------------------                     ----------------

           IN:                                      IN:
           ---                                      ---
     STORAGE-AQUEOUS =        1829.5500       STORAGE-AQUEOUS =           0.8002     MST                              
                 CHD =        1339.2780                   CHD =           0.6730     SSM_CHD                          
                 CNC =        1793.9467                   CNC =           0.9358     CNC                              

            TOTAL IN =        4962.7747              TOTAL IN =           2.4090

          OUT:                                     OUT:
          ----                                     ----
     STORAGE-AQUEOUS =        1246.6559       STORAGE-AQUEOUS =           0.1236     MST                              
                 CHD =        3193.2277                   CHD =           2.1214     SSM_CHD                          
                 CNC =         522.8912                   CNC =           0.1640     CNC                              

           TOTAL OUT =        4962.7747             TOTAL OUT =           2.4090

            IN - OUT =      -6.6895E-07              IN - OUT =      -1.1417E-11

 PERCENT DISCREPANCY =          -0.00     PERCENT DISCREPANCY =          -0.00




         TIME SUMMARY AT END OF TIME STEP  199 IN STRESS PERIOD    1
                    SECONDS     MINUTES      HOURS       DAYS        YEARS
                    -----------------------------------------------------------
   TIME STEP LENGTH 8.64000E+05  14400.      240.00      10.000     2.73785E-02
 STRESS PERIOD TIME 1.71936E+08 2.86560E+06  47760.      1990.0      5.4483    
         TOTAL TIME 1.71936E+08 2.86560E+06  47760.      1990.0      5.4483    


end timestep


start timestep kper="1" kstp="200" mode="normal"

 UBDSV06 SAVING  SOURCE-SINK MIX IN MODEL CA               PACKAGE CA              CONNECTED TO MODEL CA               PACKAGE SSM              ON UNIT   2020 AT TIME STEP    200, STRESS PERIOD      1
 UBDSV06 SAVING              CNC IN MODEL CA               PACKAGE CA              CONNECTED TO MODEL CA               PACKAGE CNC              ON UNIT   2020 AT TIME STEP    200, STRESS PERIOD      1

 SSM PACKAGE (SSM) FLOW RATES   PERIOD      1   STEP      200
 ------------------------------------------------------------------------------------------------
   NUMBER   CELLID                   BOUND Q        SSM CONC          RATE         PACKAGE NAME  
 ------------------------------------------------------------------------------------------------
     1      (1,1,1)               2.08333330E-02  10.768065       0.22433467           CHD       
     2      (2,1,1)               2.08333330E-02  10.768065       0.22433467           CHD       
     3      (3,1,1)               2.08333330E-02  10.768065       0.22433467           CHD       
     4      (4,1,1)               0.0000000       0.0000000       0.0000000            CHD       
     5      (5,1,1)               0.0000000       0.0000000       0.0000000            CHD       
     6      (6,1,1)               0.0000000       0.0000000       0.0000000            CHD       
     7      (7,1,1)               0.0000000       0.0000000       0.0000000            CHD       
     8      (8,1,1)               0.0000000       0.0000000       0.0000000            CHD       
     9      (9,1,1)               0.0000000       0.0000000       0.0000000            CHD       
     10     (10,1,1)              0.0000000       0.0000000       0.0000000            CHD       
     11     (1,1,25)             -2.08333337E-02  10.204310      -0.21258979           CHD       
     12     (2,1,25)             -2.08333337E-02  10.204310      -0.21258979           CHD       
     13     (3,1,25)             -2.08333337E-02  10.204310      -0.21258979           CHD       
     14     (4,1,25)             -2.08333337E-02  10.204310      -0.21258979           CHD       
     15     (5,1,25)             -2.08333337E-02  10.204310      -0.21258979           CHD       
     16     (6,1,25)             -2.08333337E-02  10.204310      -0.21258979           CHD       
     17     (7,1,25)             -2.08333337E-02  10.204310      -0.21258979           CHD       
     18     (8,1,25)             -2.08333337E-02  10.204310      -0.21258979           CHD       
     19     (9,1,25)             -2.08333337E-02  10.204310      -0.21258979           CHD       
     20     (10,1,25)            -2.08333337E-02  10.204310      -0.21258979           CHD       
 ------------------------------------------------------------------------------------------------




 CNC PACKAGE (CNC) FLOW RATES   PERIOD      1   STEP      200
 -----------------------------------------------
   NUMBER   CELLID                    RATE      
 -----------------------------------------------
     1      (4,1,1)              -3.01334737E-02
     2      (5,1,1)               0.13441160    
     3      (6,1,1)               0.13382983    
     4      (7,1,1)               0.13193326    
     5      (8,1,1)               0.13287761    
     6      (9,1,1)               0.13417233    
     7      (10,1,1)              0.13492091    
 -----------------------------------------------



1
  CONCENTRATION IN LAYER   1 AT END OF TIME STEP 200 IN STRESS PERIOD    1
  ---------------------------------------------------------------------------

                1               2               3               4               5               6               7               8               9              10
               11              12              13              14              15              16              17              18              19              20
               21              22              23              24              25
 ................................................................................................................................................................
   1  8.375467684     8.052035823     8.471191977     9.848078643     11.22834453     11.02075313     10.87174082     10.79754902     10.76691329     10.75464394    
      10.75613264     10.75870919     10.76438177     10.77115380     10.77492616     10.77275665     10.76689860     10.75287128     10.72742088     10.68744526    
      10.62859470     10.55001522     10.45041894     10.33128057     10.20430986    
1
  CONCENTRATION IN LAYER   2 AT END OF TIME STEP 200 IN STRESS PERIOD    1
  ---------------------------------------------------------------------------

                1               2               3               4               5               6               7               8               9              10
               11              12              13              14              15              16              17              18              19              20
               21              22              23              24              25
 ................................................................................................................................................................
   1  8.155894417     7.970245439     8.475574207     10.02162031     11.15007928     10.97610122     10.85052491     10.78832001     10.76256763     10.75270752    
      10.75468924     10.75808058     10.76412393     10.77103817     10.77487454     10.77270970     10.76686945     10.75285667     10.72741353     10.68744343    
      10.62859439     10.55001521     10.45041894     10.33128057     10.20430987    
1
  CONCENTRATION IN LAYER   3 AT END OF TIME STEP 200 IN STRESS PERIOD    1
  ---------------------------------------------------------------------------

                1               2               3               4               5               6               7               8               9              10
               11              12              13              14              15              16              17              18              19              20
               21              22              23              24              25
 ................................................................................................................................................................
   1  7.686247743     7.823590674     8.492542331     11.35029526     11.01444887     10.89259959     10.81189816     10.77077777     10.75404943     10.74894632    
      10.75204217     10.75688926     10.76362352     10.77081457     10.77477563     10.77262008     10.76681396     10.75282888     10.72739960     10.68743992    
      10.62859382     10.55001519     10.45041895     10.33128057     10.20430987    
1
  CONCENTRATION IN LAYER   4 AT END OF TIME STEP 200 IN STRESS PERIOD    1
  ---------------------------------------------------------------------------

                1               2               3               4               5               6               7               8               9              10
               11              12              13              14              15              16              17              18              19              20
               21              22              23              24              25
 ................................................................................................................................................................
   1  6.899537640     7.665687032     8.523979333     11.01552899     10.84343737     10.79279967     10.76209980     10.74685318     10.74233584     10.74355498    
      10.74861248     10.75528604     10.76292267     10.77050026     10.77463803     10.77249605     10.76673752     10.75279065     10.72738049     10.68743509    
      10.62859303     10.55001517     10.45041897     10.33128056     10.20430987    
1
  CONCENTRATION IN LAYER   5 AT END OF TIME STEP 200 IN STRESS PERIOD    1
  ---------------------------------------------------------------------------

                1               2               3               4               5               6               7               8               9              10
               11              12              13              14              15              16              17              18              19              20
               21              22              23              24              25
 ................................................................................................................................................................
   1  6.899537640     7.615986598     8.580097694     10.67860040     10.65893556     10.68554995     10.70614839     10.71913862     10.72866427     10.73671256    
      10.74497249     10.75346119     10.76209020     10.77012352     10.77447416     10.77234924     10.76664753     10.75274572     10.72735813     10.68742938    
      10.62859210     10.55001515     10.45041899     10.33128055     10.20430986    
1
  CONCENTRATION IN LAYER   6 AT END OF TIME STEP 200 IN STRESS PERIOD    1
  ---------------------------------------------------------------------------

                1               2               3               4               5               6               7               8               9              10
               11              12              13              14              15              16              17              18              19              20
               21              22              23              24              25
 ................................................................................................................................................................
   1  6.899537640     7.660666561     8.691523845     10.32446231     10.47411594     10.58069712     10.64983944     10.69037542     10.71429388     10.72951702    
      10.74121774     10.75157438     10.76121653     10.76972249     10.77429952     10.77219370     10.76655277     10.75269853     10.72733471     10.68742335    
      10.62859112     10.55001513     10.45041901     10.33128054     10.20430986    
1
  CONCENTRATION IN LAYER   7 AT END OF TIME STEP 200 IN STRESS PERIOD    1
  ---------------------------------------------------------------------------

                1               2               3               4               5               6               7               8               9              10
               11              12              13              14              15              16              17              18              19              20
               21              22              23              24              25
 ................................................................................................................................................................
   1  6.899537640     8.324030866     9.493299125     10.00285650     10.30282668     10.48570429     10.59805735     10.66340568     10.70065007     10.72267409    
      10.73766273     10.74977904     10.76041061     10.76934062     10.77413108     10.77204461     10.76646250     10.75265368     10.72731252     10.68741761    
      10.62859018     10.55001511     10.45041903     10.33128053     10.20430985    
1
  CONCENTRATION IN LAYER   8 AT END OF TIME STEP 200 IN STRESS PERIOD    1
  ---------------------------------------------------------------------------

                1               2               3               4               5               6               7               8               9              10
               11              12              13              14              15              16              17              18              19              20
               21              22              23              24              25
 ................................................................................................................................................................
   1  6.899537640     7.947848980     9.016185283     9.744908125     10.16077303     10.40727724     10.55506140     10.64072345     10.68907279     10.71685360    
      10.73466052     10.74821850     10.75975391     10.76901792     10.77398592     10.77191687     10.76638560     10.75261556     10.72729373     10.68741271    
      10.62858938     10.55001510     10.45041905     10.33128052     10.20430985    
1
  CONCENTRATION IN LAYER   9 AT END OF TIME STEP 200 IN STRESS PERIOD    1
  ---------------------------------------------------------------------------

                1               2               3               4               5               6               7               8               9              10
               11              12              13              14              15              16              17              18              19              20
               21              22              23              24              25
 ................................................................................................................................................................
   1  6.899537640     7.720389058     8.774328924     9.565937543     10.05905881     10.35120367     10.52434626     10.62437083     10.68067966     10.71262531    
      10.73248746     10.74707248     10.75928833     10.76878448     10.77387935     10.77182353     10.76632966     10.75258787     10.72728012     10.68740913    
      10.62858880     10.55001509     10.45041906     10.33128052     10.20430986    
1
  CONCENTRATION IN LAYER  10 AT END OF TIME STEP 200 IN STRESS PERIOD    1
  ---------------------------------------------------------------------------

                1               2               3               4               5               6               7               8               9              10
               11              12              13              14              15              16              17              18              19              20
               21              22              23              24              25
 ................................................................................................................................................................
   1  6.899537640     7.623973197     8.653981294     9.474417898     10.00609800     10.32196797     10.50834438     10.61581718     10.67627375     10.71040261    
      10.73134718     10.74646687     10.75904687     10.76866186     10.77382292     10.77177428     10.76630022     10.75257331     10.72727300     10.68740723    
      10.62858849     10.55001509     10.45041907     10.33128051     10.20430988    

 CONCENTRATION WILL BE SAVED ON UNIT 2021 AT END OF TIME STEP  200, STRESS PERIOD    1


  MASS BUDGET FOR ENTIRE MODEL AT END OF TIME STEP  200, STRESS PERIOD   1
  ---------------------------------------------------------------------------------------------------

     CUMULATIVE MASS      M       RATES FOR THIS TIME STEP      M/T          PACKAGE NAME    
     ------------------                 ------------------------                     ----------------

           IN:                                      IN:
           ---                                      ---
     STORAGE-AQUEOUS =        1837.5482       STORAGE-AQUEOUS =           0.7998     MST                              
                 CHD =        1346.0080                   CHD =           0.6730     SSM_CHD                          
                 CNC =        1803.3058                   CNC =           0.9359     CNC                              

            TOTAL IN =        4986.8620              TOTAL IN =           2.4087

          OUT:                                     OUT:
          ----                                     ----
     STORAGE-AQUEOUS =        1247.8452       STORAGE-AQUEOUS =           0.1189     MST                              
                 CHD =        3214.4866                   CHD =           2.1259     SSM_CHD                          
                 CNC =         524.5301                   CNC =           0.1639     CNC                              

           TOTAL OUT =        4986.8620             TOTAL OUT =           2.4087

            IN - OUT =      -6.6907E-07              IN - OUT =      -1.1219E-11

 PERCENT DISCREPANCY =          -0.00     PERCENT DISCREPANCY =          -0.00




         TIME SUMMARY AT END OF TIME STEP  200 IN STRESS PERIOD    1
                    SECONDS     MINUTES      HOURS       DAYS        YEARS
                    -----------------------------------------------------------
   TIME STEP LENGTH 8.64000E+05  14400.      240.00      10.000     2.73785E-02
 STRESS PERIOD TIME 1.72800E+08 2.88000E+06  48000.      2000.0      5.4757    
         TOTAL TIME 1.72800E+08 2.88000E+06  48000.      2000.0      5.4757    


end timestep

