                                   MODFLOW 6
                U.S. GEOLOGICAL SURVEY MODULAR HYDROLOGIC MODEL
                       GROUNDWATER TRANSPORT MODEL (GWT)
                VERSION 6.5.0.dev0+prt (preliminary) 10/07/2023
                               ***DEVELOP MODE***

   MODFLOW 6 compiled Oct 07 2023 02:19:02 with Intel(R) Fortran Intel(R) 64
   Compiler Classic for applications running on Intel(R) 64, Version 2021.7.0
                             Build 20220726_000000

This software is preliminary or provisional and is subject to 
revision. It is being provided to meet the need for timely best 
science. The software has not received final approval by the U.S. 
Geological Survey (USGS). No warranty, expressed or implied, is made 
by the USGS or the U.S. Government as to the functionality of the 
software and related material nor shall the fact of release 
constitute any such warranty. The software is provided on the 
condition that neither the USGS nor the U.S. Government shall be held 
liable for any damages resulting from the authorized or unauthorized 
use of the software.


As a work of the United States Government, this USGS product is 
in the public domain within the United States. You can copy, 
modify, distribute, and perform the work, even for commercial 
purposes, all without asking permission. Additionally, USGS 
waives copyright and related rights in the work worldwide 
through CC0 1.0 Universal Public Domain Dedication 
(https://creativecommons.org/publicdomain/zero/1.0/).

The following GNU Lesser General Public License (LGPL) libraries
are used in this USGS product:

    SPARSKIT version 2.0
      ilut, luson, and qsplit 
      (https://www-users.cse.umn.edu/~saad/software/SPARSKIT/)

    RCM - Reverse Cuthill McKee Ordering
      (https://people.math.sc.edu/Burkardt/f_src/rcm/rcm.html)

    BLAS - Basic Linear Algebra Subprograms Level 1
      (https://people.math.sc.edu/Burkardt/f_src/blas1_d/blas1_d.html)

    SPARSEKIT - Sparse Matrix Utility Package
      amux, dperm, dvperm, rperm, and cperm
      (https://people.sc.fsu.edu/~jburkardt/f77_src/sparsekit/sparsekit.html)

The following BSD-3 License libraries are used in this USGS product:

    Modern Fortran DAG Library
      Copyright (c) 2018, Jacob Williams
      All rights reserved.
      (https://github.com/jacobwilliams/daglib)

MODFLOW 6 compiler options: /Isrc\libmf6core.a.p /Isrc /I..\src
/Isrc\libmf6_external.a.p /MTd /nologo /warn:general /warn:truncated_source
/stand:f08 /Zi /traceback /O2 /fpe:0 /heap-arrays:0 /traceback /fpp
/Qdiag-disable:7416 /Qdiag-disable:7025 /Qdiag-disable:5268
/Fdsrc\libmf6core.a.p\Utilities_compilerversion.F90.pdb
/module:src\libmf6core.a.p
/Fosrc/libmf6core.a.p/Utilities_compilerversion.F90.obj /c

System command used to initiate simulation:
c:\Users\portega\anaconda3\envs\mf6rtm\python.exe -m ipykernel_launcher --f=c:\Users\portega\AppData\Roaming\jupyter\runtime\kernel-v2-17404NqyrdJ157y2B.json

MODFLOW was compiled using uniform precision.

Real Variables
  KIND: 8
  TINY (smallest non-zero value):    2.225074-308
  HUGE (largest value):    1.797693+308
  PRECISION: 15
  SIZE IN BITS: 64

Integer Variables
  KIND: 4
  HUGE (largest value): 2147483647
  SIZE IN BITS: 32

Long Integer Variables
  KIND: 8
  HUGE (largest value): 9223372036854775807
  SIZE IN BITS: 64

Logical Variables
  KIND: 4
  SIZE IN BITS: 32
 
 NAMEFILE OPTIONS:
 END NAMEFILE OPTIONS:

 DIS -- STRUCTURED GRID DISCRETIZATION PACKAGE, VERSION 2 : 3/27/2014 - INPUT READ FROM MEMPATH: __INPUT__/CA/DIS                                  


 DSP-- DISPERSION PACKAGE, VERSION 1, 1/24/2018 INPUT READ FROM MEMPATH: __INPUT__/CA/DSP                                  


 Setting Discretization Options
    Model length unit [0=UND, 1=FEET, 2=METERS, 3=CENTIMETERS] set as 2
 End Setting Discretization Options

 Setting Discretization Dimensions
    NLAY = 10
    NROW = 1
    NCOL = 25
 End Setting Discretization Dimensions

 Setting Discretization Griddata
    DELR set from input file
    DELC set from input file
    TOP set from input file
    BOTM set from input file
    IDOMAIN set from input file
 End Setting Discretization Griddata


 FMI -- FLOW MODEL INTERFACE,' VERSION 2, 8/17/2023
  FLOWS PROVIDED BY A GWF MODEL IN THIS SIMULATION

 ADV-- ADVECTION PACKAGE, VERSION 1, 8/25/2017 INPUT READ FROM UNIT 1372


 # File generated by Flopy version 3.5.0.dev0 on 07/12/2024 at 11:54:47.
 PROCESSING ADVECTION OPTIONS
    ADVECTION WEIGHTING SCHEME HAS BEEN SET TO: TVD
 END OF ADVECTION OPTIONS
 Setting DSP Options
    XT3D formulation [0=INACTIVE, 1=ACTIVE, 3=ACTIVE RHS] set to: 0
 End Setting DSP Options

 Setting DSP Griddata
    ALH set from input file
    ATH1 set from input file
    ATV set from input file
 End Setting DSP Griddata


 CNC   -- CNC PACKAGE, VERSION 8, 2/22/2014 INPUT READ FROM UNIT 1406
 # File generated by Flopy version 3.5.0.dev0 on 07/12/2024 at 11:54:47.

 PROCESSING CNC OPTIONS
    CNC FLOWS WILL BE PRINTED TO LISTING FILE.
    FLOWS WILL BE SAVED TO BUDGET FILE SPECIFIED IN OUTPUT CONTROL
 END OF CNC OPTIONS

 PROCESSING CNC DIMENSIONS
    MAXBOUND =       7
 END OF CNC DIMENSIONS

 IC -- INITIAL CONDITIONS PACKAGE, VERSION 8, 3/28/2015 INPUT READ FROM UNIT 1370
 # File generated by Flopy version 3.5.0.dev0 on 07/12/2024 at 11:54:47.
 PROCESSING GRIDDATA

 OPENED Ca.ic_strt_layer1.txt
 FILE TYPE:OPEN/CLOSE   UNIT 2008   STATUS:OLD                 
 FORMAT:FORMATTED              ACCESS:SEQUENTIAL          
 ACTION:READ                


 OPENED Ca.ic_strt_layer2.txt
 FILE TYPE:OPEN/CLOSE   UNIT 2009   STATUS:OLD                 
 FORMAT:FORMATTED              ACCESS:SEQUENTIAL          
 ACTION:READ                


 OPENED Ca.ic_strt_layer3.txt
 FILE TYPE:OPEN/CLOSE   UNIT 2010   STATUS:OLD                 
 FORMAT:FORMATTED              ACCESS:SEQUENTIAL          
 ACTION:READ                


 OPENED Ca.ic_strt_layer4.txt
 FILE TYPE:OPEN/CLOSE   UNIT 2011   STATUS:OLD                 
 FORMAT:FORMATTED              ACCESS:SEQUENTIAL          
 ACTION:READ                


 OPENED Ca.ic_strt_layer5.txt
 FILE TYPE:OPEN/CLOSE   UNIT 2012   STATUS:OLD                 
 FORMAT:FORMATTED              ACCESS:SEQUENTIAL          
 ACTION:READ                


 OPENED Ca.ic_strt_layer6.txt
 FILE TYPE:OPEN/CLOSE   UNIT 2013   STATUS:OLD                 
 FORMAT:FORMATTED              ACCESS:SEQUENTIAL          
 ACTION:READ                


 OPENED Ca.ic_strt_layer7.txt
 FILE TYPE:OPEN/CLOSE   UNIT 2014   STATUS:OLD                 
 FORMAT:FORMATTED              ACCESS:SEQUENTIAL          
 ACTION:READ                


 OPENED Ca.ic_strt_layer8.txt
 FILE TYPE:OPEN/CLOSE   UNIT 2015   STATUS:OLD                 
 FORMAT:FORMATTED              ACCESS:SEQUENTIAL          
 ACTION:READ                


 OPENED Ca.ic_strt_layer9.txt
 FILE TYPE:OPEN/CLOSE   UNIT 2016   STATUS:OLD                 
 FORMAT:FORMATTED              ACCESS:SEQUENTIAL          
 ACTION:READ                


 OPENED Ca.ic_strt_layer10.txt
 FILE TYPE:OPEN/CLOSE   UNIT 2017   STATUS:OLD                 
 FORMAT:FORMATTED              ACCESS:SEQUENTIAL          
 ACTION:READ                

 END PROCESSING GRIDDATA

 MST -- MOBILE STORAGE AND TRANSFER PACKAGE, VERSION 1, 7/29/2020 INPUT READ FROM UNIT 1371


 # File generated by Flopy version 3.5.0.dev0 on 07/12/2024 at 11:54:47.
 PROCESSING MOBILE STORAGE AND TRANSFER OPTIONS
 END OF MOBILE STORAGE AND TRANSFER OPTIONS
 PROCESSING GRIDDATA

 OPENED Ca.mst_porosity.txt
 FILE TYPE:OPEN/CLOSE   UNIT 2018   STATUS:OLD                 
 FORMAT:FORMATTED              ACCESS:SEQUENTIAL          
 ACTION:READ                

 END PROCESSING GRIDDATA

 SSM -- SOURCE-SINK MIXING PACKAGE, VERSION 1, 8/25/2017 INPUT READ FROM UNIT 1404


 # File generated by Flopy version 3.5.0.dev0 on 07/12/2024 at 11:54:47.
 PROCESSING SSM OPTIONS
    SSM FLOW INFORMATION WILL BE PRINTED TO LISTING FILE WHENEVER ICBCFL IS NOT ZERO.
    CELL-BY-CELL FLOW INFORMATION WILL BE SAVED TO BINARY FILE WHENEVER ICBCFL IS NOT ZERO.
 END OF SSM OPTIONS

 OPENED Ca.ssm_sources.txt
 FILE TYPE:OPEN/CLOSE   UNIT 2019   STATUS:OLD                 
 FORMAT:FORMATTED              ACCESS:SEQUENTIAL          
 ACTION:READ                

 PROCESSING SOURCES
 AUX SOURCE DETECTED.
    USING AUX COLUMN 6 IN PACKAGE CHD
 END PROCESSING SOURCES
 OPTIONAL FILEINPUT BLOCK NOT FOUND.  CONTINUING.
      THE LAST TIME STEP WILL BE PRINTED
      THE LAST TIME STEP WILL BE PRINTED
 # File generated by Flopy version 3.5.0.dev0 on 07/12/2024 at 11:54:47.

 PROCESSING OC OPTIONS

    BUDGET INFORMATION WILL BE WRITTEN TO:
      UNIT NUMBER: 2020
      FILE NAME: Ca.cbb

 OPENED Ca.cbb
 FILE TYPE:DATA(BINARY)   UNIT 2020   STATUS:REPLACE             
 FORMAT:UNFORMATTED            ACCESS:STREAM              
 ACTION:READWRITE           

    CONCENTRATION INFORMATION WILL BE WRITTEN TO:
      UNIT NUMBER: 2021
      FILE NAME: Ca.ucn

 OPENED Ca.ucn
 FILE TYPE:DATA(BINARY)   UNIT 2021   STATUS:REPLACE             
 FORMAT:UNFORMATTED            ACCESS:STREAM              
 ACTION:READWRITE           

 END OF OC OPTIONS

start timestep kper="1" kstp="1" mode="normal"


 BEGIN READING OUTPUT CONTROL FOR STRESS PERIOD 1
      ALL TIME STEPS WILL BE SAVED
      ALL TIME STEPS WILL BE SAVED
      ALL TIME STEPS WILL BE PRINTED
      ALL TIME STEPS WILL BE PRINTED

 END READING OUTPUT CONTROL FOR STRESS PERIOD 1

 OPENED Ca.cnc_stress_period_data_1.txt
 FILE TYPE:OPEN/CLOSE   UNIT 2139   STATUS:OLD                 
 FORMAT:FORMATTED              ACCESS:SEQUENTIAL          
 ACTION:READ                

 UBDSV06 SAVING  SOURCE-SINK MIX IN MODEL CA               PACKAGE CA              CONNECTED TO MODEL CA               PACKAGE SSM              ON UNIT   2020 AT TIME STEP      1, STRESS PERIOD      1
 UBDSV06 SAVING              CNC IN MODEL CA               PACKAGE CA              CONNECTED TO MODEL CA               PACKAGE CNC              ON UNIT   2020 AT TIME STEP      1, STRESS PERIOD      1

 SSM PACKAGE (SSM) FLOW RATES   PERIOD      1   STEP        1
 ------------------------------------------------------------------------------------------------
   NUMBER   CELLID                   BOUND Q        SSM CONC          RATE         PACKAGE NAME  
 ------------------------------------------------------------------------------------------------
     1      (1,1,1)               2.08333361E-02  10.768065       0.22433471           CHD       
     2      (2,1,1)               2.08333361E-02  10.768065       0.22433471           CHD       
     3      (3,1,1)               2.08333361E-02  10.768065       0.22433471           CHD       
     4      (4,1,1)               0.0000000       0.0000000       0.0000000            CHD       
     5      (5,1,1)               0.0000000       0.0000000       0.0000000            CHD       
     6      (6,1,1)               0.0000000       0.0000000       0.0000000            CHD       
     7      (7,1,1)               0.0000000       0.0000000       0.0000000            CHD       
     8      (8,1,1)               0.0000000       0.0000000       0.0000000            CHD       
     9      (9,1,1)               0.0000000       0.0000000       0.0000000            CHD       
     10     (10,1,1)              0.0000000       0.0000000       0.0000000            CHD       
     11     (1,1,25)             -2.08333402E-02  6.9257796      -0.14428712           CHD       
     12     (2,1,25)             -2.08333402E-02  6.9257796      -0.14428712           CHD       
     13     (3,1,25)             -2.08333402E-02  6.9257796      -0.14428712           CHD       
     14     (4,1,25)             -2.08333403E-02  6.9257796      -0.14428712           CHD       
     15     (5,1,25)             -2.08333403E-02  6.9257796      -0.14428712           CHD       
     16     (6,1,25)             -2.08333403E-02  6.9257796      -0.14428712           CHD       
     17     (7,1,25)             -2.08333403E-02  6.9257796      -0.14428712           CHD       
     18     (8,1,25)             -2.08333403E-02  6.9257796      -0.14428712           CHD       
     19     (9,1,25)             -2.08333403E-02  6.9257796      -0.14428712           CHD       
     20     (10,1,25)            -2.08333403E-02  6.9257796      -0.14428712           CHD       
 ------------------------------------------------------------------------------------------------




 CNC PACKAGE (CNC) FLOW RATES   PERIOD      1   STEP        1
 -----------------------------------------------
   NUMBER   CELLID                    RATE      
 -----------------------------------------------
     1      (4,1,1)               8.36555610E-02
     2      (5,1,1)               0.14336405    
     3      (6,1,1)               0.14342470    
     4      (7,1,1)               0.14344985    
     5      (8,1,1)               0.14346021    
     6      (9,1,1)               0.14346438    
     7      (10,1,1)              0.14346585    
 -----------------------------------------------



1
  CONCENTRATION IN LAYER   1 AT END OF TIME STEP   1 IN STRESS PERIOD    1
  ---------------------------------------------------------------------------

                1               2               3               4               5               6               7               8               9              10
               11              12              13              14              15              16              17              18              19              20
               21              22              23              24              25
 ................................................................................................................................................................
   1  11.68115440     7.748718097     7.003155283     6.932644007     6.926417259     6.925843773     6.925765500     6.925776102     6.925778949     6.925779574    
      6.925779603     6.925779587     6.925779562     6.925779552     6.925779555     6.925779560     6.925779558     6.925779553     6.925779550     6.925779551    
      6.925779556     6.925779562     6.925779567     6.925779575     6.925779577    
1
  CONCENTRATION IN LAYER   2 AT END OF TIME STEP   1 IN STRESS PERIOD    1
  ---------------------------------------------------------------------------

                1               2               3               4               5               6               7               8               9              10
               11              12              13              14              15              16              17              18              19              20
               21              22              23              24              25
 ................................................................................................................................................................
   1  11.24016875     7.646902240     6.994648421     6.932057248     6.926382476     6.925838978     6.925761140     6.925775830     6.925778916     6.925779596    
      6.925779621     6.925779591     6.925779549     6.925779534     6.925779541     6.925779548     6.925779545     6.925779536     6.925779531     6.925779534    
      6.925779543     6.925779553     6.925779562     6.925779574     6.925779577    
1
  CONCENTRATION IN LAYER   3 AT END OF TIME STEP   1 IN STRESS PERIOD    1
  ---------------------------------------------------------------------------

                1               2               3               4               5               6               7               8               9              10
               11              12              13              14              15              16              17              18              19              20
               21              22              23              24              25
 ................................................................................................................................................................
   1  9.996407409     7.431605477     6.979845253     6.931063515     6.926320700     6.925828796     6.925755730     6.925775539     6.925778878     6.925779632    
      6.925779652     6.925779597     6.925779528     6.925779506     6.925779518     6.925779531     6.925779525     6.925779511     6.925779504     6.925779509    
      6.925779523     6.925779539     6.925779554     6.925779572     6.925779577    
1
  CONCENTRATION IN LAYER   4 AT END OF TIME STEP   1 IN STRESS PERIOD    1
  ---------------------------------------------------------------------------

                1               2               3               4               5               6               7               8               9              10
               11              12              13              14              15              16              17              18              19              20
               21              22              23              24              25
 ................................................................................................................................................................
   1  6.899537640     7.129496134     6.965026556     6.929961513     6.926241879     6.925814918     6.925752665     6.925775474     6.925778864     6.925779665    
      6.925779681     6.925779603     6.925779510     6.925779483     6.925779501     6.925779519     6.925779510     6.925779491     6.925779480     6.925779487    
      6.925779506     6.925779527     6.925779546     6.925779569     6.925779576    
1
  CONCENTRATION IN LAYER   5 AT END OF TIME STEP   1 IN STRESS PERIOD    1
  ---------------------------------------------------------------------------

                1               2               3               4               5               6               7               8               9              10
               11              12              13              14              15              16              17              18              19              20
               21              22              23              24              25
 ................................................................................................................................................................
   1  6.899537640     7.007987795     6.948863922     6.928760610     6.926152996     6.925800796     6.925752866     6.925775700     6.925778889     6.925779686    
      6.925779699     6.925779607     6.925779501     6.925779471     6.925779494     6.925779514     6.925779504     6.925779480     6.925779468     6.925779475    
      6.925779496     6.925779520     6.925779540     6.925779567     6.925779576    
1
  CONCENTRATION IN LAYER   6 AT END OF TIME STEP   1 IN STRESS PERIOD    1
  ---------------------------------------------------------------------------

                1               2               3               4               5               6               7               8               9              10
               11              12              13              14              15              16              17              18              19              20
               21              22              23              24              25
 ................................................................................................................................................................
   1  6.899537640     6.959040114     6.938077262     6.927746588     6.926065874     6.925789346     6.925755600     6.925776146     6.925778949     6.925779694    
      6.925779705     6.925779609     6.925779499     6.925779469     6.925779494     6.925779515     6.925779504     6.925779479     6.925779465     6.925779473    
      6.925779493     6.925779518     6.925779538     6.925779566     6.925779576    
1
  CONCENTRATION IN LAYER   7 AT END OF TIME STEP   1 IN STRESS PERIOD    1
  ---------------------------------------------------------------------------

                1               2               3               4               5               6               7               8               9              10
               11              12              13              14              15              16              17              18              19              20
               21              22              23              24              25
 ................................................................................................................................................................
   1  6.899537640     6.939074457     6.932176796     6.927025355     6.925990092     6.925782016     6.925759656     6.925776695     6.925779029     6.925779690    
      6.925779701     6.925779609     6.925779503     6.925779474     6.925779498     6.925779519     6.925779508     6.925779483     6.925779469     6.925779476    
      6.925779496     6.925779519     6.925779539     6.925779566     6.925779576    
1
  CONCENTRATION IN LAYER   8 AT END OF TIME STEP   1 IN STRESS PERIOD    1
  ---------------------------------------------------------------------------

                1               2               3               4               5               6               7               8               9              10
               11              12              13              14              15              16              17              18              19              20
               21              22              23              24              25
 ................................................................................................................................................................
   1  6.899537640     6.931103094     6.929033831     6.926540319     6.925931056     6.925778950     6.925763922     6.925777229     6.925779112     6.925779678    
      6.925779689     6.925779607     6.925779510     6.925779484     6.925779505     6.925779524     6.925779515     6.925779492     6.925779479     6.925779485    
      6.925779503     6.925779524     6.925779542     6.925779566     6.925779576    
1
  CONCENTRATION IN LAYER   9 AT END OF TIME STEP   1 IN STRESS PERIOD    1
  ---------------------------------------------------------------------------

                1               2               3               4               5               6               7               8               9              10
               11              12              13              14              15              16              17              18              19              20
               21              22              23              24              25
 ................................................................................................................................................................
   1  6.899537640     6.928022025     6.927466613     6.926247847     6.925888559     6.925779253     6.925767495     6.925777649     6.925779177     6.925779655    
      6.925779667     6.925779602     6.925779524     6.925779501     6.925779517     6.925779533     6.925779526     6.925779508     6.925779497     6.925779501    
      6.925779515     6.925779533     6.925779548     6.925779568     6.925779576    
1
  CONCENTRATION IN LAYER  10 AT END OF TIME STEP   1 IN STRESS PERIOD    1
  ---------------------------------------------------------------------------

                1               2               3               4               5               6               7               8               9              10
               11              12              13              14              15              16              17              18              19              20
               21              22              23              24              25
 ................................................................................................................................................................
   1  6.899537640     6.927004961     6.926801350     6.926109655     6.925865525     6.925780732     6.925769662     6.925777886     6.925779209     6.925779613    
      6.925779628     6.925779595     6.925779548     6.925779532     6.925779540     6.925779550     6.925779546     6.925779536     6.925779530     6.925779532    
      6.925779540     6.925779550     6.925779559     6.925779571     6.925779576    

 CONCENTRATION WILL BE SAVED ON UNIT 2021 AT END OF TIME STEP    1, STRESS PERIOD    1


  MASS BUDGET FOR ENTIRE MODEL AT END OF TIME STEP    1, STRESS PERIOD   1
  ---------------------------------------------------------------------------------------------------

     CUMULATIVE MASS      M       RATES FOR THIS TIME STEP      M/T          PACKAGE NAME    
     ------------------                 ------------------------                     ----------------

           IN:                                      IN:
           ---                                      ---
     STORAGE-AQUEOUS =       3.0573E-02       STORAGE-AQUEOUS =       3.0573E-03     MST                              
                 CHD =           6.7300                   CHD =           0.6730     SSM_CHD                          
                 CNC =          10.0385                   CNC =           1.0038     CNC                              

            TOTAL IN =          16.7991              TOTAL IN =           1.6799

          OUT:                                     OUT:
          ----                                     ----
     STORAGE-AQUEOUS =           1.7749       STORAGE-AQUEOUS =           0.1775     MST                              
                 CHD =          14.4285                   CHD =           1.4429     SSM_CHD                          
                 CNC =           0.5956                   CNC =       5.9561E-02     CNC                              

           TOTAL OUT =          16.7991             TOTAL OUT =           1.6799

            IN - OUT =       8.6184E-10              IN - OUT =       8.6184E-11

 PERCENT DISCREPANCY =           0.00     PERCENT DISCREPANCY =           0.00




         TIME SUMMARY AT END OF TIME STEP    1 IN STRESS PERIOD    1
                    SECONDS     MINUTES      HOURS       DAYS        YEARS
                    -----------------------------------------------------------
   TIME STEP LENGTH 8.64000E+05  14400.      240.00      10.000     2.73785E-02
 STRESS PERIOD TIME 8.64000E+05  14400.      240.00      10.000     2.73785E-02
         TOTAL TIME 8.64000E+05  14400.      240.00      10.000     2.73785E-02


end timestep


start timestep kper="1" kstp="2" mode="normal"

 UBDSV06 SAVING  SOURCE-SINK MIX IN MODEL CA               PACKAGE CA              CONNECTED TO MODEL CA               PACKAGE SSM              ON UNIT   2020 AT TIME STEP      2, STRESS PERIOD      1
 UBDSV06 SAVING              CNC IN MODEL CA               PACKAGE CA              CONNECTED TO MODEL CA               PACKAGE CNC              ON UNIT   2020 AT TIME STEP      2, STRESS PERIOD      1

 SSM PACKAGE (SSM) FLOW RATES   PERIOD      1   STEP        2
 ------------------------------------------------------------------------------------------------
   NUMBER   CELLID                   BOUND Q        SSM CONC          RATE         PACKAGE NAME  
 ------------------------------------------------------------------------------------------------
     1      (1,1,1)               2.08333319E-02  10.768065       0.22433466           CHD       
     2      (2,1,1)               2.08333319E-02  10.768065       0.22433466           CHD       
     3      (3,1,1)               2.08333319E-02  10.768065       0.22433466           CHD       
     4      (4,1,1)               0.0000000       0.0000000       0.0000000            CHD       
     5      (5,1,1)               0.0000000       0.0000000       0.0000000            CHD       
     6      (6,1,1)               0.0000000       0.0000000       0.0000000            CHD       
     7      (7,1,1)               0.0000000       0.0000000       0.0000000            CHD       
     8      (8,1,1)               0.0000000       0.0000000       0.0000000            CHD       
     9      (9,1,1)               0.0000000       0.0000000       0.0000000            CHD       
     10     (10,1,1)              0.0000000       0.0000000       0.0000000            CHD       
     11     (1,1,25)             -2.08333370E-02  6.9257796      -0.14428710           CHD       
     12     (2,1,25)             -2.08333370E-02  6.9257796      -0.14428710           CHD       
     13     (3,1,25)             -2.08333370E-02  6.9257796      -0.14428710           CHD       
     14     (4,1,25)             -2.08333370E-02  6.9257796      -0.14428710           CHD       
     15     (5,1,25)             -2.08333370E-02  6.9257796      -0.14428710           CHD       
     16     (6,1,25)             -2.08333370E-02  6.9257796      -0.14428710           CHD       
     17     (7,1,25)             -2.08333370E-02  6.9257796      -0.14428710           CHD       
     18     (8,1,25)             -2.08333370E-02  6.9257796      -0.14428710           CHD       
     19     (9,1,25)             -2.08333370E-02  6.9257796      -0.14428710           CHD       
     20     (10,1,25)            -2.08333370E-02  6.9257796      -0.14428710           CHD       
 ------------------------------------------------------------------------------------------------




 CNC PACKAGE (CNC) FLOW RATES   PERIOD      1   STEP        2
 -----------------------------------------------
   NUMBER   CELLID                    RATE      
 -----------------------------------------------
     1      (4,1,1)              -0.28378640    
     2      (5,1,1)               0.14119803    
     3      (6,1,1)               0.14239982    
     4      (7,1,1)               0.14297115    
     5      (8,1,1)               0.14323607    
     6      (9,1,1)               0.14335464    
     7      (10,1,1)              0.14339973    
 -----------------------------------------------



1
  CONCENTRATION IN LAYER   1 AT END OF TIME STEP   2 IN STRESS PERIOD    1
  ---------------------------------------------------------------------------

                1               2               3               4               5               6               7               8               9              10
               11              12              13              14              15              16              17              18              19              20
               21              22              23              24              25
 ................................................................................................................................................................
   1  15.00450981     8.895528301     7.174381980     6.954077416     6.928964213     6.926134453     6.925799908     6.925777110     6.925777340     6.925779550    
      6.925779599     6.925779620     6.925779569     6.925779547     6.925779539     6.925779534     6.925779529     6.925779525     6.925779525     6.925779530    
      6.925779534     6.925779545     6.925779555     6.925779570     6.925779576    
1
  CONCENTRATION IN LAYER   2 AT END OF TIME STEP   2 IN STRESS PERIOD    1
  ---------------------------------------------------------------------------

                1               2               3               4               5               6               7               8               9              10
               11              12              13              14              15              16              17              18              19              20
               21              22              23              24              25
 ................................................................................................................................................................
   1  14.07178694     8.636885706     7.148293000     6.951903021     6.928779160     6.926114671     6.925795294     6.925779494     6.925777103     6.925779305    
      6.925779722     6.925779613     6.925779563     6.925779540     6.925779527     6.925779518     6.925779510     6.925779507     6.925779508     6.925779515    
      6.925779521     6.925779536     6.925779549     6.925779569     6.925779576    
1
  CONCENTRATION IN LAYER   3 AT END OF TIME STEP   2 IN STRESS PERIOD    1
  ---------------------------------------------------------------------------

                1               2               3               4               5               6               7               8               9              10
               11              12              13              14              15              16              17              18              19              20
               21              22              23              24              25
 ................................................................................................................................................................
   1  11.73915423     8.127822214     7.104179322     6.948239906     6.928450918     6.926077377     6.925790186     6.925782160     6.925776820     6.925779282    
      6.925779716     6.925779594     6.925779554     6.925779531     6.925779510     6.925779492     6.925779480     6.925779479     6.925779482     6.925779492    
      6.925779502     6.925779520     6.925779539     6.925779566     6.925779575    
1
  CONCENTRATION IN LAYER   4 AT END OF TIME STEP   2 IN STRESS PERIOD    1
  ---------------------------------------------------------------------------

                1               2               3               4               5               6               7               8               9              10
               11              12              13              14              15              16              17              18              19              20
               21              22              23              24              25
 ................................................................................................................................................................
   1  6.899537640     7.477004715     7.060340385     6.944119446     6.928037954     6.926029246     6.925789152     6.925780853     6.925776977     6.925779349    
      6.925779705     6.925779580     6.925779549     6.925779524     6.925779495     6.925779469     6.925779454     6.925779454     6.925779459     6.925779471    
      6.925779485     6.925779506     6.925779528     6.925779562     6.925779575    
1
  CONCENTRATION IN LAYER   5 AT END OF TIME STEP   2 IN STRESS PERIOD    1
  ---------------------------------------------------------------------------

                1               2               3               4               5               6               7               8               9              10
               11              12              13              14              15              16              17              18              19              20
               21              22              23              24              25
 ................................................................................................................................................................
   1  6.899537640     7.175529362     7.010627641     6.939461520     6.927585430     6.925978361     6.925788950     6.925779319     6.925776916     6.925779403    
      6.925779702     6.925779574     6.925779547     6.925779521     6.925779487     6.925779457     6.925779439     6.925779440     6.925779446     6.925779458    
      6.925779475     6.925779496     6.925779521     6.925779559     6.925779574    
1
  CONCENTRATION IN LAYER   6 AT END OF TIME STEP   2 IN STRESS PERIOD    1
  ---------------------------------------------------------------------------

                1               2               3               4               5               6               7               8               9              10
               11              12              13              14              15              16              17              18              19              20
               21              22              23              24              25
 ................................................................................................................................................................
   1  6.899537640     7.037770969     6.974759561     6.935219172     6.927148161     6.925931180     6.925788276     6.925778539     6.925776908     6.925779424    
      6.925779700     6.925779574     6.925779547     6.925779520     6.925779486     6.925779455     6.925779434     6.925779437     6.925779442     6.925779454    
      6.925779471     6.925779493     6.925779518     6.925779557     6.925779574    
1
  CONCENTRATION IN LAYER   7 AT END OF TIME STEP   2 IN STRESS PERIOD    1
  ---------------------------------------------------------------------------

                1               2               3               4               5               6               7               8               9              10
               11              12              13              14              15              16              17              18              19              20
               21              22              23              24              25
 ................................................................................................................................................................
   1  6.899537640     6.975294540     6.952998834     6.931926815     6.926772920     6.925892120     6.925787100     6.925778332     6.925777089     6.925779422    
      6.925779697     6.925779578     6.925779549     6.925779523     6.925779489     6.925779460     6.925779438     6.925779443     6.925779446     6.925779458    
      6.925779473     6.925779495     6.925779519     6.925779556     6.925779574    
1
  CONCENTRATION IN LAYER   8 AT END OF TIME STEP   2 IN STRESS PERIOD    1
  ---------------------------------------------------------------------------

                1               2               3               4               5               6               7               8               9              10
               11              12              13              14              15              16              17              18              19              20
               21              22              23              24              25
 ................................................................................................................................................................
   1  6.899537640     6.947606601     6.940647892     6.929657969     6.926486597     6.925863573     6.925785101     6.925778522     6.925777427     6.925779398    
      6.925779700     6.925779587     6.925779553     6.925779527     6.925779497     6.925779471     6.925779449     6.925779456     6.925779457     6.925779467    
      6.925779481     6.925779501     6.925779523     6.925779557     6.925779574    
1
  CONCENTRATION IN LAYER   9 AT END OF TIME STEP   2 IN STRESS PERIOD    1
  ---------------------------------------------------------------------------

                1               2               3               4               5               6               7               8               9              10
               11              12              13              14              15              16              17              18              19              20
               21              22              23              24              25
 ................................................................................................................................................................
   1  6.899537640     6.935853039     6.934101284     6.928321294     6.926299216     6.925846165     6.925781692     6.925778869     6.925777869     6.925779337    
      6.925779733     6.925779605     6.925779557     6.925779532     6.925779508     6.925779488     6.925779470     6.925779473     6.925779474     6.925779483    
      6.925779495     6.925779512     6.925779531     6.925779559     6.925779574    
1
  CONCENTRATION IN LAYER  10 AT END OF TIME STEP   2 IN STRESS PERIOD    1
  ---------------------------------------------------------------------------

                1               2               3               4               5               6               7               8               9              10
               11              12              13              14              15              16              17              18              19              20
               21              22              23              24              25
 ................................................................................................................................................................
   1  6.899537640     6.931569798     6.931294486     6.927723467     6.926208769     6.925838537     6.925778957     6.925777814     6.925778450     6.925779184    
      6.925779848     6.925779642     6.925779558     6.925779533     6.925779521     6.925779513     6.925779501     6.925779499     6.925779497     6.925779502    
      6.925779512     6.925779526     6.925779541     6.925779562     6.925779574    

 CONCENTRATION WILL BE SAVED ON UNIT 2021 AT END OF TIME STEP    2, STRESS PERIOD    1


  MASS BUDGET FOR ENTIRE MODEL AT END OF TIME STEP    2, STRESS PERIOD   1
  ---------------------------------------------------------------------------------------------------

     CUMULATIVE MASS      M       RATES FOR THIS TIME STEP      M/T          PACKAGE NAME    
     ------------------                 ------------------------                     ----------------

           IN:                                      IN:
           ---                                      ---
     STORAGE-AQUEOUS =           4.4990       STORAGE-AQUEOUS =           0.4468     MST                              
                 CHD =          13.4601                   CHD =           0.6730     SSM_CHD                          
                 CNC =          19.9914                   CNC =           0.9953     CNC                              

            TOTAL IN =          37.9506              TOTAL IN =           2.1151

          OUT:                                     OUT:
          ----                                     ----
     STORAGE-AQUEOUS =           4.2725       STORAGE-AQUEOUS =           0.2498     MST                              
                 CHD =          28.8572                   CHD =           1.4429     SSM_CHD                          
                 CNC =           4.8209                   CNC =           0.4225     CNC                              

           TOTAL OUT =          37.9506             TOTAL OUT =           2.1151

            IN - OUT =       6.1848E-10              IN - OUT =      -2.4335E-11

 PERCENT DISCREPANCY =           0.00     PERCENT DISCREPANCY =          -0.00




         TIME SUMMARY AT END OF TIME STEP    2 IN STRESS PERIOD    1
                    SECONDS     MINUTES      HOURS       DAYS        YEARS
                    -----------------------------------------------------------
   TIME STEP LENGTH 8.64000E+05  14400.      240.00      10.000     2.73785E-02
 STRESS PERIOD TIME 1.72800E+06  28800.      480.00      20.000     5.47570E-02
         TOTAL TIME 1.72800E+06  28800.      480.00      20.000     5.47570E-02


end timestep


start timestep kper="1" kstp="3" mode="normal"

 UBDSV06 SAVING  SOURCE-SINK MIX IN MODEL CA               PACKAGE CA              CONNECTED TO MODEL CA               PACKAGE SSM              ON UNIT   2020 AT TIME STEP      3, STRESS PERIOD      1
 UBDSV06 SAVING              CNC IN MODEL CA               PACKAGE CA              CONNECTED TO MODEL CA               PACKAGE CNC              ON UNIT   2020 AT TIME STEP      3, STRESS PERIOD      1

 SSM PACKAGE (SSM) FLOW RATES   PERIOD      1   STEP        3
 ------------------------------------------------------------------------------------------------
   NUMBER   CELLID                   BOUND Q        SSM CONC          RATE         PACKAGE NAME  
 ------------------------------------------------------------------------------------------------
     1      (1,1,1)               2.08333325E-02  10.768065       0.22433467           CHD       
     2      (2,1,1)               2.08333325E-02  10.768065       0.22433467           CHD       
     3      (3,1,1)               2.08333325E-02  10.768065       0.22433467           CHD       
     4      (4,1,1)               0.0000000       0.0000000       0.0000000            CHD       
     5      (5,1,1)               0.0000000       0.0000000       0.0000000            CHD       
     6      (6,1,1)               0.0000000       0.0000000       0.0000000            CHD       
     7      (7,1,1)               0.0000000       0.0000000       0.0000000            CHD       
     8      (8,1,1)               0.0000000       0.0000000       0.0000000            CHD       
     9      (9,1,1)               0.0000000       0.0000000       0.0000000            CHD       
     10     (10,1,1)              0.0000000       0.0000000       0.0000000            CHD       
     11     (1,1,25)             -2.08333362E-02  6.9257796      -0.14428709           CHD       
     12     (2,1,25)             -2.08333362E-02  6.9257796      -0.14428709           CHD       
     13     (3,1,25)             -2.08333362E-02  6.9257796      -0.14428709           CHD       
     14     (4,1,25)             -2.08333362E-02  6.9257796      -0.14428709           CHD       
     15     (5,1,25)             -2.08333362E-02  6.9257796      -0.14428709           CHD       
     16     (6,1,25)             -2.08333362E-02  6.9257796      -0.14428709           CHD       
     17     (7,1,25)             -2.08333362E-02  6.9257796      -0.14428709           CHD       
     18     (8,1,25)             -2.08333362E-02  6.9257796      -0.14428709           CHD       
     19     (9,1,25)             -2.08333362E-02  6.9257796      -0.14428709           CHD       
     20     (10,1,25)            -2.08333362E-02  6.9257796      -0.14428709           CHD       
 ------------------------------------------------------------------------------------------------




 CNC PACKAGE (CNC) FLOW RATES   PERIOD      1   STEP        3
 -----------------------------------------------
   NUMBER   CELLID                    RATE      
 -----------------------------------------------
     1      (4,1,1)              -0.51721290    
     2      (5,1,1)               0.13827542    
     3      (6,1,1)               0.14086120    
     4      (7,1,1)               0.14217982    
     5      (8,1,1)               0.14283181    
     6      (9,1,1)               0.14313838    
     7      (10,1,1)              0.14326006    
 -----------------------------------------------



1
  CONCENTRATION IN LAYER   1 AT END OF TIME STEP   3 IN STRESS PERIOD    1
  ---------------------------------------------------------------------------

                1               2               3               4               5               6               7               8               9              10
               11              12              13              14              15              16              17              18              19              20
               21              22              23              24              25
 ................................................................................................................................................................
   1  16.40284702     10.08198444     7.437532999     6.998079649     6.935461489     6.927024547     6.925923780     6.925787126     6.925776401     6.925778214    
      6.925779638     6.925779783     6.925779611     6.925779541     6.925779521     6.925779512     6.925779506     6.925779502     6.925779502     6.925779507    
      6.925779515     6.925779530     6.925779544     6.925779564     6.925779574    
1
  CONCENTRATION IN LAYER   2 AT END OF TIME STEP   3 IN STRESS PERIOD    1
  ---------------------------------------------------------------------------

                1               2               3               4               5               6               7               8               9              10
               11              12              13              14              15              16              17              18              19              20
               21              22              23              24              25
 ................................................................................................................................................................
   1  15.95736403     9.663405409     7.385100565     6.992935219     6.934942121     6.926967203     6.925917932     6.925787308     6.925775781     6.925778001    
      6.925779556     6.925779781     6.925779603     6.925779531     6.925779508     6.925779497     6.925779490     6.925779486     6.925779487     6.925779493    
      6.925779503     6.925779521     6.925779538     6.925779562     6.925779574    
1
  CONCENTRATION IN LAYER   3 AT END OF TIME STEP   3 IN STRESS PERIOD    1
  ---------------------------------------------------------------------------

                1               2               3               4               5               6               7               8               9              10
               11              12              13              14              15              16              17              18              19              20
               21              22              23              24              25
 ................................................................................................................................................................
   1  12.83429831     8.869800676     7.297798371     6.984258176     6.934014125     6.926861345     6.925908106     6.925786726     6.925774841     6.925777803    
      6.925779485     6.925779764     6.925779591     6.925779515     6.925779487     6.925779473     6.925779464     6.925779462     6.925779463     6.925779472    
      6.925779485     6.925779506     6.925779529     6.925779559     6.925779573    
1
  CONCENTRATION IN LAYER   4 AT END OF TIME STEP   3 IN STRESS PERIOD    1
  ---------------------------------------------------------------------------

                1               2               3               4               5               6               7               8               9              10
               11              12              13              14              15              16              17              18              19              20
               21              22              23              24              25
 ................................................................................................................................................................
   1  6.899537640     7.895457863     7.212559886     6.974377020     6.932832883     6.926722183     6.925896225     6.925784774     6.925773947     6.925777685    
      6.925779459     6.925779744     6.925779582     6.925779502     6.925779469     6.925779452     6.925779441     6.925779439     6.925779441     6.925779451    
      6.925779468     6.925779492     6.925779519     6.925779555     6.925779572    
1
  CONCENTRATION IN LAYER   5 AT END OF TIME STEP   3 IN STRESS PERIOD    1
  ---------------------------------------------------------------------------

                1               2               3               4               5               6               7               8               9              10
               11              12              13              14              15              16              17              18              19              20
               21              22              23              24              25
 ................................................................................................................................................................
   1  6.899537640     7.402236143     7.115395506     6.963137408     6.931527038     6.926567873     6.925882763     6.925782460     6.925773295     6.925777661    
      6.925779466     6.925779732     6.925779576     6.925779494     6.925779458     6.925779439     6.925779426     6.925779425     6.925779427     6.925779437    
      6.925779456     6.925779483     6.925779512     6.925779552     6.925779572    
1
  CONCENTRATION IN LAYER   6 AT END OF TIME STEP   3 IN STRESS PERIOD    1
  ---------------------------------------------------------------------------

                1               2               3               4               5               6               7               8               9              10
               11              12              13              14              15              16              17              18              19              20
               21              22              23              24              25
 ................................................................................................................................................................
   1  6.899537640     7.156831249     7.041217632     6.952547436     6.930242761     6.926415602     6.925868535     6.925780408     6.925773104     6.925777732    
      6.925779485     6.925779729     6.925779575     6.925779493     6.925779456     6.925779436     6.925779421     6.925779421     6.925779422     6.925779432    
      6.925779452     6.925779479     6.925779509     6.925779550     6.925779571    
1
  CONCENTRATION IN LAYER   7 AT END OF TIME STEP   3 IN STRESS PERIOD    1
  ---------------------------------------------------------------------------

                1               2               3               4               5               6               7               8               9              10
               11              12              13              14              15              16              17              18              19              20
               21              22              23              24              25
 ................................................................................................................................................................
   1  6.899537640     7.036415348     6.993051058     6.943972556     6.929116979     6.926280220     6.925854735     6.925778805     6.925773430     6.925777880    
      6.925779501     6.925779734     6.925779578     6.925779495     6.925779459     6.925779440     6.925779425     6.925779426     6.925779426     6.925779435    
      6.925779454     6.925779480     6.925779509     6.925779549     6.925779571    
1
  CONCENTRATION IN LAYER   8 AT END OF TIME STEP   3 IN STRESS PERIOD    1
  ---------------------------------------------------------------------------

                1               2               3               4               5               6               7               8               9              10
               11              12              13              14              15              16              17              18              19              20
               21              22              23              24              25
 ................................................................................................................................................................
   1  6.899537640     6.978754084     6.964266472     6.937841254     6.928240138     6.926172467     6.925842332     6.925777748     6.925774174     6.925778063    
      6.925779510     6.925779749     6.925779584     6.925779502     6.925779468     6.925779451     6.925779435     6.925779437     6.925779437     6.925779444    
      6.925779461     6.925779486     6.925779513     6.925779550     6.925779571    
1
  CONCENTRATION IN LAYER   9 AT END OF TIME STEP   3 IN STRESS PERIOD    1
  ---------------------------------------------------------------------------

                1               2               3               4               5               6               7               8               9              10
               11              12              13              14              15              16              17              18              19              20
               21              22              23              24              25
 ................................................................................................................................................................
   1  6.899537640     6.952318203     6.948625559     6.934030304     6.927653130     6.926099091     6.925831800     6.925777493     6.925775118     6.925778215    
      6.925779521     6.925779773     6.925779593     6.925779510     6.925779481     6.925779466     6.925779453     6.925779453     6.925779452     6.925779458    
      6.925779474     6.925779495     6.925779519     6.925779552     6.925779571    
1
  CONCENTRATION IN LAYER  10 AT END OF TIME STEP   3 IN STRESS PERIOD    1
  ---------------------------------------------------------------------------

                1               2               3               4               5               6               7               8               9              10
               11              12              13              14              15              16              17              18              19              20
               21              22              23              24              25
 ................................................................................................................................................................
   1  6.899537640     6.942194726     6.941648859     6.932313691     6.927366059     6.926062380     6.925825158     6.925777706     6.925775858     6.925778266    
      6.925779540     6.925779795     6.925779602     6.925779523     6.925779498     6.925779486     6.925779473     6.925779471     6.925779471     6.925779475    
      6.925779488     6.925779507     6.925779527     6.925779554     6.925779572    

 CONCENTRATION WILL BE SAVED ON UNIT 2021 AT END OF TIME STEP    3, STRESS PERIOD    1


  MASS BUDGET FOR ENTIRE MODEL AT END OF TIME STEP    3, STRESS PERIOD   1
  ---------------------------------------------------------------------------------------------------

     CUMULATIVE MASS      M       RATES FOR THIS TIME STEP      M/T          PACKAGE NAME    
     ------------------                 ------------------------                     ----------------

           IN:                                      IN:
           ---                                      ---
     STORAGE-AQUEOUS =          12.6497       STORAGE-AQUEOUS =           0.8151     MST                              
                 CHD =          20.1901                   CHD =           0.6730     SSM_CHD                          
                 CNC =          29.8305                   CNC =           0.9839     CNC                              

            TOTAL IN =          62.6704              TOTAL IN =           2.4720

          OUT:                                     OUT:
          ----                                     ----
     STORAGE-AQUEOUS =           8.0578       STORAGE-AQUEOUS =           0.3785     MST                              
                 CHD =          43.2859                   CHD =           1.4429     SSM_CHD                          
                 CNC =          11.3266                   CNC =           0.6506     CNC                              

           TOTAL OUT =          62.6704             TOTAL OUT =           2.4720

            IN - OUT =       5.1514E-10              IN - OUT =      -1.0335E-11

 PERCENT DISCREPANCY =           0.00     PERCENT DISCREPANCY =          -0.00




         TIME SUMMARY AT END OF TIME STEP    3 IN STRESS PERIOD    1
                    SECONDS     MINUTES      HOURS       DAYS        YEARS
                    -----------------------------------------------------------
   TIME STEP LENGTH 8.64000E+05  14400.      240.00      10.000     2.73785E-02
 STRESS PERIOD TIME 2.59200E+06  43200.      720.00      30.000     8.21355E-02
         TOTAL TIME 2.59200E+06  43200.      720.00      30.000     8.21355E-02


end timestep


start timestep kper="1" kstp="4" mode="normal"

 UBDSV06 SAVING  SOURCE-SINK MIX IN MODEL CA               PACKAGE CA              CONNECTED TO MODEL CA               PACKAGE SSM              ON UNIT   2020 AT TIME STEP      4, STRESS PERIOD      1
 UBDSV06 SAVING              CNC IN MODEL CA               PACKAGE CA              CONNECTED TO MODEL CA               PACKAGE CNC              ON UNIT   2020 AT TIME STEP      4, STRESS PERIOD      1

 SSM PACKAGE (SSM) FLOW RATES   PERIOD      1   STEP        4
 ------------------------------------------------------------------------------------------------
   NUMBER   CELLID                   BOUND Q        SSM CONC          RATE         PACKAGE NAME  
 ------------------------------------------------------------------------------------------------
     1      (1,1,1)               2.08333321E-02  10.768065       0.22433467           CHD       
     2      (2,1,1)               2.08333321E-02  10.768065       0.22433467           CHD       
     3      (3,1,1)               2.08333321E-02  10.768065       0.22433467           CHD       
     4      (4,1,1)               0.0000000       0.0000000       0.0000000            CHD       
     5      (5,1,1)               0.0000000       0.0000000       0.0000000            CHD       
     6      (6,1,1)               0.0000000       0.0000000       0.0000000            CHD       
     7      (7,1,1)               0.0000000       0.0000000       0.0000000            CHD       
     8      (8,1,1)               0.0000000       0.0000000       0.0000000            CHD       
     9      (9,1,1)               0.0000000       0.0000000       0.0000000            CHD       
     10     (10,1,1)              0.0000000       0.0000000       0.0000000            CHD       
     11     (1,1,25)             -2.08333356E-02  6.9257796      -0.14428709           CHD       
     12     (2,1,25)             -2.08333356E-02  6.9257796      -0.14428709           CHD       
     13     (3,1,25)             -2.08333356E-02  6.9257796      -0.14428709           CHD       
     14     (4,1,25)             -2.08333356E-02  6.9257796      -0.14428709           CHD       
     15     (5,1,25)             -2.08333356E-02  6.9257796      -0.14428709           CHD       
     16     (6,1,25)             -2.08333356E-02  6.9257796      -0.14428709           CHD       
     17     (7,1,25)             -2.08333356E-02  6.9257796      -0.14428709           CHD       
     18     (8,1,25)             -2.08333356E-02  6.9257796      -0.14428709           CHD       
     19     (9,1,25)             -2.08333356E-02  6.9257796      -0.14428709           CHD       
     20     (10,1,25)            -2.08333356E-02  6.9257796      -0.14428709           CHD       
 ------------------------------------------------------------------------------------------------




 CNC PACKAGE (CNC) FLOW RATES   PERIOD      1   STEP        4
 -----------------------------------------------
   NUMBER   CELLID                    RATE      
 -----------------------------------------------
     1      (4,1,1)              -0.66130509    
     2      (5,1,1)               0.13500732    
     3      (6,1,1)               0.13898326    
     4      (7,1,1)               0.14112770    
     5      (8,1,1)               0.14224638    
     6      (9,1,1)               0.14279815    
     7      (10,1,1)              0.14302406    
 -----------------------------------------------



1
  CONCENTRATION IN LAYER   1 AT END OF TIME STEP   4 IN STRESS PERIOD    1
  ---------------------------------------------------------------------------

                1               2               3               4               5               6               7               8               9              10
               11              12              13              14              15              16              17              18              19              20
               21              22              23              24              25
 ................................................................................................................................................................
   1  16.43765486     11.12328694     7.761763001     7.068710031     6.948229245     6.929087640     6.926238552     6.925833762     6.925779583     6.925775854    
      6.925778202     6.925779626     6.925779740     6.925779571     6.925779510     6.925779493     6.925779486     6.925779482     6.925779483     6.925779488    
      6.925779499     6.925779515     6.925779534     6.925779557     6.925779571    
1
  CONCENTRATION IN LAYER   2 AT END OF TIME STEP   4 IN STRESS PERIOD    1
  ---------------------------------------------------------------------------

                1               2               3               4               5               6               7               8               9              10
               11              12              13              14              15              16              17              18              19              20
               21              22              23              24              25
 ................................................................................................................................................................
   1  16.40271008     10.58420934     7.681027941     7.059397851     6.947134052     6.928952822     6.926222560     6.925833447     6.925778453     6.925775161    
      6.925778160     6.925779611     6.925779733     6.925779562     6.925779499     6.925779480     6.925779472     6.925779468     6.925779469     6.925779477    
      6.925779489     6.925779507     6.925779528     6.925779556     6.925779571    
1
  CONCENTRATION IN LAYER   3 AT END OF TIME STEP   4 IN STRESS PERIOD    1
  ---------------------------------------------------------------------------

                1               2               3               4               5               6               7               8               9              10
               11              12              13              14              15              16              17              18              19              20
               21              22              23              24              25
 ................................................................................................................................................................
   1  13.50064256     9.562222928     7.546589753     7.043574389     6.945158900     6.928702230     6.926192820     6.925832284     6.925776431     6.925774193    
      6.925778116     6.925779592     6.925779721     6.925779549     6.925779481     6.925779460     6.925779449     6.925779446     6.925779449     6.925779458    
      6.925779473     6.925779495     6.925779520     6.925779552     6.925779570    
1
  CONCENTRATION IN LAYER   4 AT END OF TIME STEP   4 IN STRESS PERIOD    1
  ---------------------------------------------------------------------------

                1               2               3               4               5               6               7               8               9              10
               11              12              13              14              15              16              17              18              19              20
               21              22              23              24              25
 ................................................................................................................................................................
   1  6.899537640     8.323806189     7.411640249     7.025098834     6.942606737     6.928368260     6.926153121     6.925829652     6.925774065     6.925773384    
      6.925778108     6.925779579     6.925779709     6.925779537     6.925779465     6.925779440     6.925779428     6.925779425     6.925779428     6.925779439    
      6.925779457     6.925779483     6.925779511     6.925779548     6.925779570    
1
  CONCENTRATION IN LAYER   5 AT END OF TIME STEP   4 IN STRESS PERIOD    1
  ---------------------------------------------------------------------------

                1               2               3               4               5               6               7               8               9              10
               11              12              13              14              15              16              17              18              19              20
               21              22              23              24              25
 ................................................................................................................................................................
   1  6.899537640     7.656050577     7.258537516     7.003930666     6.939750100     6.927991155     6.926107854     6.925825507     6.925772017     6.925772961    
      6.925778147     6.925779579     6.925779702     6.925779529     6.925779456     6.925779428     6.925779414     6.925779412     6.925779415     6.925779427    
      6.925779446     6.925779474     6.925779504     6.925779545     6.925779569    
1
  CONCENTRATION IN LAYER   6 AT END OF TIME STEP   4 IN STRESS PERIOD    1
  ---------------------------------------------------------------------------

                1               2               3               4               5               6               7               8               9              10
               11              12              13              14              15              16              17              18              19              20
               21              22              23              24              25
 ................................................................................................................................................................
   1  6.899537640     7.302203511     7.136978361     6.983497668     6.936895754     6.927611079     6.926061563     6.925820238     6.925770767     6.925772998    
      6.925778211     6.925779589     6.925779699     6.925779526     6.925779453     6.925779424     6.925779408     6.925779407     6.925779410     6.925779421    
      6.925779442     6.925779469     6.925779501     6.925779543     6.925779568    
1
  CONCENTRATION IN LAYER   7 AT END OF TIME STEP   4 IN STRESS PERIOD    1
  ---------------------------------------------------------------------------

                1               2               3               4               5               6               7               8               9              10
               11              12              13              14              15              16              17              18              19              20
               21              22              23              24              25
 ................................................................................................................................................................
   1  6.899537640     7.117676864     7.054127658     6.966434752     6.934342817     6.927265164     6.926018567     6.925814474     6.925770528     6.925773383    
      6.925778300     6.925779605     6.925779700     6.925779528     6.925779455     6.925779428     6.925779411     6.925779410     6.925779412     6.925779423    
      6.925779443     6.925779470     6.925779501     6.925779542     6.925779568    
1
  CONCENTRATION IN LAYER   8 AT END OF TIME STEP   4 IN STRESS PERIOD    1
  ---------------------------------------------------------------------------

                1               2               3               4               5               6               7               8               9              10
               11              12              13              14              15              16              17              18              19              20
               21              22              23              24              25
 ................................................................................................................................................................
   1  6.899537640     7.023874624     7.002526073     6.953824192     6.932312382     6.926983540     6.925982578     6.925808946     6.925771199     6.925773966    
      6.925778397     6.925779626     6.925779706     6.925779534     6.925779462     6.925779437     6.925779420     6.925779419     6.925779421     6.925779431    
      6.925779449     6.925779475     6.925779504     6.925779543     6.925779568    
1
  CONCENTRATION IN LAYER   9 AT END OF TIME STEP   4 IN STRESS PERIOD    1
  ---------------------------------------------------------------------------

                1               2               3               4               5               6               7               8               9              10
               11              12              13              14              15              16              17              18              19              20
               21              22              23              24              25
 ................................................................................................................................................................
   1  6.899537640     6.978600967     6.973280845     6.945859560     6.930933151     6.926786953     6.925956549     6.925804408     6.925772389     6.925774581    
      6.925778478     6.925779650     6.925779716     6.925779542     6.925779472     6.925779449     6.925779435     6.925779433     6.925779434     6.925779442    
      6.925779459     6.925779482     6.925779509     6.925779544     6.925779568    
1
  CONCENTRATION IN LAYER  10 AT END OF TIME STEP   4 IN STRESS PERIOD    1
  ---------------------------------------------------------------------------

                1               2               3               4               5               6               7               8               9              10
               11              12              13              14              15              16              17              18              19              20
               21              22              23              24              25
 ................................................................................................................................................................
   1  6.899537640     6.960498315     6.960037498     6.942143710     6.930249033     6.926686578     6.925942907     6.925801589     6.925773398     6.925775031    
      6.925778528     6.925779674     6.925779729     6.925779553     6.925779484     6.925779464     6.925779452     6.925779448     6.925779449     6.925779455    
      6.925779470     6.925779491     6.925779515     6.925779546     6.925779568    

 CONCENTRATION WILL BE SAVED ON UNIT 2021 AT END OF TIME STEP    4, STRESS PERIOD    1


  MASS BUDGET FOR ENTIRE MODEL AT END OF TIME STEP    4, STRESS PERIOD   1
  ---------------------------------------------------------------------------------------------------

     CUMULATIVE MASS      M       RATES FOR THIS TIME STEP      M/T          PACKAGE NAME    
     ------------------                 ------------------------                     ----------------

           IN:                                      IN:
           ---                                      ---
     STORAGE-AQUEOUS =          22.8380       STORAGE-AQUEOUS =           1.0188     MST                              
                 CHD =          26.9202                   CHD =           0.6730     SSM_CHD                          
                 CNC =          39.5411                   CNC =           0.9711     CNC                              

            TOTAL IN =          89.2993              TOTAL IN =           2.6629

          OUT:                                     OUT:
          ----                                     ----
     STORAGE-AQUEOUS =          12.3662       STORAGE-AQUEOUS =           0.4308     MST                              
                 CHD =          57.7146                   CHD =           1.4429     SSM_CHD                          
                 CNC =          19.2184                   CNC =           0.7892     CNC                              

           TOTAL OUT =          89.2993             TOTAL OUT =           2.6629

            IN - OUT =       5.0439E-10              IN - OUT =      -1.0720E-12

 PERCENT DISCREPANCY =           0.00     PERCENT DISCREPANCY =          -0.00




         TIME SUMMARY AT END OF TIME STEP    4 IN STRESS PERIOD    1
                    SECONDS     MINUTES      HOURS       DAYS        YEARS
                    -----------------------------------------------------------
   TIME STEP LENGTH 8.64000E+05  14400.      240.00      10.000     2.73785E-02
 STRESS PERIOD TIME 3.45600E+06  57600.      960.00      40.000     0.10951    
         TOTAL TIME 3.45600E+06  57600.      960.00      40.000     0.10951    


end timestep


start timestep kper="1" kstp="5" mode="normal"

 UBDSV06 SAVING  SOURCE-SINK MIX IN MODEL CA               PACKAGE CA              CONNECTED TO MODEL CA               PACKAGE SSM              ON UNIT   2020 AT TIME STEP      5, STRESS PERIOD      1
 UBDSV06 SAVING              CNC IN MODEL CA               PACKAGE CA              CONNECTED TO MODEL CA               PACKAGE CNC              ON UNIT   2020 AT TIME STEP      5, STRESS PERIOD      1

 SSM PACKAGE (SSM) FLOW RATES   PERIOD      1   STEP        5
 ------------------------------------------------------------------------------------------------
   NUMBER   CELLID                   BOUND Q        SSM CONC          RATE         PACKAGE NAME  
 ------------------------------------------------------------------------------------------------
     1      (1,1,1)               2.08333321E-02  10.768065       0.22433466           CHD       
     2      (2,1,1)               2.08333321E-02  10.768065       0.22433466           CHD       
     3      (3,1,1)               2.08333321E-02  10.768065       0.22433466           CHD       
     4      (4,1,1)               0.0000000       0.0000000       0.0000000            CHD       
     5      (5,1,1)               0.0000000       0.0000000       0.0000000            CHD       
     6      (6,1,1)               0.0000000       0.0000000       0.0000000            CHD       
     7      (7,1,1)               0.0000000       0.0000000       0.0000000            CHD       
     8      (8,1,1)               0.0000000       0.0000000       0.0000000            CHD       
     9      (9,1,1)               0.0000000       0.0000000       0.0000000            CHD       
     10     (10,1,1)              0.0000000       0.0000000       0.0000000            CHD       
     11     (1,1,25)             -2.08333353E-02  6.9257796      -0.14428709           CHD       
[...]
               21              22              23              24              25
 ................................................................................................................................................................
   1  6.899537640     7.649436329     8.668595941     9.493345728     10.02791220     10.34545982     10.53413810     10.64456703     10.70764030     10.74404152    
      10.76696583     10.78391719     10.79826305     10.80969271     10.81779494     10.81603999     10.81174609     10.79910374     10.77390656     10.73471999    
      10.67450595     10.59312920     10.48939644     10.36502942     10.23241913    

 CONCENTRATION WILL BE SAVED ON UNIT 2021 AT END OF TIME STEP  199, STRESS PERIOD    1


  MASS BUDGET FOR ENTIRE MODEL AT END OF TIME STEP  199, STRESS PERIOD   1
  ---------------------------------------------------------------------------------------------------

     CUMULATIVE MASS      M       RATES FOR THIS TIME STEP      M/T          PACKAGE NAME    
     ------------------                 ------------------------                     ----------------

           IN:                                      IN:
           ---                                      ---
     STORAGE-AQUEOUS =        1849.9415       STORAGE-AQUEOUS =           0.8102     MST                              
                 CHD =        1339.2780                   CHD =           0.6730     SSM_CHD                          
                 CNC =        1791.8353                   CNC =           0.9348     CNC                              

            TOTAL IN =        4981.0548              TOTAL IN =           2.4180

          OUT:                                     OUT:
          ----                                     ----
     STORAGE-AQUEOUS =        1254.9869       STORAGE-AQUEOUS =           0.1223     MST                              
                 CHD =        3202.9984                   CHD =           2.1318     SSM_CHD                          
                 CNC =         523.0695                   CNC =           0.1640     CNC                              

           TOTAL OUT =        4981.0548             TOTAL OUT =           2.4180

            IN - OUT =      -7.5649E-07              IN - OUT =      -1.1126E-11

 PERCENT DISCREPANCY =          -0.00     PERCENT DISCREPANCY =          -0.00




         TIME SUMMARY AT END OF TIME STEP  199 IN STRESS PERIOD    1
                    SECONDS     MINUTES      HOURS       DAYS        YEARS
                    -----------------------------------------------------------
   TIME STEP LENGTH 8.64000E+05  14400.      240.00      10.000     2.73785E-02
 STRESS PERIOD TIME 1.71936E+08 2.86560E+06  47760.      1990.0      5.4483    
         TOTAL TIME 1.71936E+08 2.86560E+06  47760.      1990.0      5.4483    


end timestep


start timestep kper="1" kstp="200" mode="normal"

 UBDSV06 SAVING  SOURCE-SINK MIX IN MODEL CA               PACKAGE CA              CONNECTED TO MODEL CA               PACKAGE SSM              ON UNIT   2020 AT TIME STEP    200, STRESS PERIOD      1
 UBDSV06 SAVING              CNC IN MODEL CA               PACKAGE CA              CONNECTED TO MODEL CA               PACKAGE CNC              ON UNIT   2020 AT TIME STEP    200, STRESS PERIOD      1

 SSM PACKAGE (SSM) FLOW RATES   PERIOD      1   STEP      200
 ------------------------------------------------------------------------------------------------
   NUMBER   CELLID                   BOUND Q        SSM CONC          RATE         PACKAGE NAME  
 ------------------------------------------------------------------------------------------------
     1      (1,1,1)               2.08333330E-02  10.768065       0.22433467           CHD       
     2      (2,1,1)               2.08333330E-02  10.768065       0.22433467           CHD       
     3      (3,1,1)               2.08333330E-02  10.768065       0.22433467           CHD       
     4      (4,1,1)               0.0000000       0.0000000       0.0000000            CHD       
     5      (5,1,1)               0.0000000       0.0000000       0.0000000            CHD       
     6      (6,1,1)               0.0000000       0.0000000       0.0000000            CHD       
     7      (7,1,1)               0.0000000       0.0000000       0.0000000            CHD       
     8      (8,1,1)               0.0000000       0.0000000       0.0000000            CHD       
     9      (9,1,1)               0.0000000       0.0000000       0.0000000            CHD       
     10     (10,1,1)              0.0000000       0.0000000       0.0000000            CHD       
     11     (1,1,25)             -2.08333337E-02  10.254351      -0.21363231           CHD       
     12     (2,1,25)             -2.08333337E-02  10.254351      -0.21363231           CHD       
     13     (3,1,25)             -2.08333337E-02  10.254351      -0.21363231           CHD       
     14     (4,1,25)             -2.08333337E-02  10.254351      -0.21363231           CHD       
     15     (5,1,25)             -2.08333337E-02  10.254351      -0.21363232           CHD       
     16     (6,1,25)             -2.08333337E-02  10.254351      -0.21363232           CHD       
     17     (7,1,25)             -2.08333337E-02  10.254351      -0.21363232           CHD       
     18     (8,1,25)             -2.08333337E-02  10.254351      -0.21363232           CHD       
     19     (9,1,25)             -2.08333337E-02  10.254351      -0.21363232           CHD       
     20     (10,1,25)            -2.08333337E-02  10.254351      -0.21363232           CHD       
 ------------------------------------------------------------------------------------------------




 CNC PACKAGE (CNC) FLOW RATES   PERIOD      1   STEP      200
 -----------------------------------------------
   NUMBER   CELLID                    RATE      
 -----------------------------------------------
     1      (4,1,1)              -3.01139032E-02
     2      (5,1,1)               0.13437304    
     3      (6,1,1)               0.13373772    
     4      (7,1,1)               0.13175481    
     5      (8,1,1)               0.13265544    
     6      (9,1,1)               0.13391417    
     7      (10,1,1)              0.13465235    
 -----------------------------------------------



1
  CONCENTRATION IN LAYER   1 AT END OF TIME STEP 200 IN STRESS PERIOD    1
  ---------------------------------------------------------------------------

                1               2               3               4               5               6               7               8               9              10
               11              12              13              14              15              16              17              18              19              20
               21              22              23              24              25
 ................................................................................................................................................................
   1  8.375194933     8.050359497     8.461497693     9.804798360     11.25144592     11.03787239     10.89000188     10.82207982     10.79657995     10.78793657    
      10.79017179     10.79464678     10.80210174     10.81069717     10.81794132     10.81645625     10.81248608     10.80077466     10.77698932     10.74019113    
      10.68257903     10.60430832     10.50403843     10.38336141     10.25435090    
1
  CONCENTRATION IN LAYER   2 AT END OF TIME STEP 200 IN STRESS PERIOD    1
  ---------------------------------------------------------------------------

                1               2               3               4               5               6               7               8               9              10
               11              12              13              14              15              16              17              18              19              20
               21              22              23              24              25
 ................................................................................................................................................................
   1  8.155669584     7.968768568     8.463725654     9.932120906     11.17545474     10.99557221     10.86963633     10.81278967     10.79202847     10.78586090    
      10.78875842     10.79401696     10.80183317     10.81057519     10.81788566     10.81641758     10.81245647     10.80075963     10.77698240     10.74018941    
      10.68257830     10.60430815     10.50403842     10.38336143     10.25435092    
1
  CONCENTRATION IN LAYER   3 AT END OF TIME STEP 200 IN STRESS PERIOD    1
  ---------------------------------------------------------------------------

                1               2               3               4               5               6               7               8               9              10
               11              12              13              14              15              16              17              18              19              20
               21              22              23              24              25
 ................................................................................................................................................................
   1  7.686119228     7.822737317     8.477672356     10.17475842     11.04191814     10.91788582     10.83200417     10.79524725     10.78344657     10.78179444    
      10.78617033     10.79283624     10.80131710     10.81034046     10.81777916     10.81634377     10.81240007     10.80073106     10.77696929     10.74018612    
      10.68257691     10.60430782     10.50403842     10.38336145     10.25435093    
1
  CONCENTRATION IN LAYER   4 AT END OF TIME STEP 200 IN STRESS PERIOD    1
  ---------------------------------------------------------------------------

                1               2               3               4               5               6               7               8               9              10
               11              12              13              14              15              16              17              18              19              20
               21              22              23              24              25
 ................................................................................................................................................................
   1  6.899537640     7.666240263     8.511320934     11.06405896     10.87527058     10.81721555     10.78291594     10.77141197     10.77178034     10.77582432    
      10.78288559     10.79125044     10.80059918     10.81001253     10.81763106     10.81624163     10.81232227     10.80069176     10.77695131     10.74018155    
      10.68257500     10.60430737     10.50403842     10.38336149     10.25435095    
1
  CONCENTRATION IN LAYER   5 AT END OF TIME STEP 200 IN STRESS PERIOD    1
  ---------------------------------------------------------------------------

                1               2               3               4               5               6               7               8               9              10
               11              12              13              14              15              16              17              18              19              20
               21              22              23              24              25
 ................................................................................................................................................................
   1  6.899537640     7.618948299     8.570377043     10.72306434     10.69188105     10.70923686     10.72736323     10.74386581     10.75776560     10.76885560    
      10.77920931     10.78941687     10.79975032     10.80962187     10.81745486     10.81612071     10.81223055     10.80064562     10.77693030     10.74017613    
      10.68257276     10.60430684     10.50403842     10.38336153     10.25435098    
1
  CONCENTRATION IN LAYER   6 AT END OF TIME STEP 200 IN STRESS PERIOD    1
  ---------------------------------------------------------------------------

                1               2               3               4               5               6               7               8               9              10
               11              12              13              14              15              16              17              18              19              20
               21              22              23              24              25
 ................................................................................................................................................................
   1  6.899537640     7.667741065     8.685562239     10.36544118     10.50552122     10.60382530     10.67140693     10.71526037     10.74318790     10.76150466    
      10.77538646     10.78750617     10.79886032     10.80920781     10.81726722     10.81599256     10.81213379     10.80059717     10.77690831     10.74017040    
      10.68257040     10.60430630     10.50403841     10.38336157     10.25435100    
1
  CONCENTRATION IN LAYER   7 AT END OF TIME STEP 200 IN STRESS PERIOD    1
  ---------------------------------------------------------------------------

                1               2               3               4               5               6               7               8               9              10
               11              12              13              14              15              16              17              18              19              20
               21              22              23              24              25
 ................................................................................................................................................................
   1  6.899537640     8.347484939     9.479102891     10.03680285     10.33162982     10.50825028     10.61990255     10.68840628     10.72940218     10.75450990    
      10.77175835     10.78567629     10.79804005     10.80881459     10.81708635     10.81586964     10.81204146     10.80055116     10.77688751     10.74016491    
      10.68256816     10.60430578     10.50403842     10.38336161     10.25435102    
1
  CONCENTRATION IN LAYER   8 AT END OF TIME STEP 200 IN STRESS PERIOD    1
  ---------------------------------------------------------------------------

                1               2               3               4               5               6               7               8               9              10
               11              12              13              14              15              16              17              18              19              20
               21              22              23              24              25
 ................................................................................................................................................................
   1  6.899537640     7.971183840     9.024980344     9.772910416     10.18670726     10.42926452     10.57707848     10.66580108     10.71772466     10.74856154    
      10.76868774     10.78408514     10.79736952     10.80848249     10.81693063     10.81576423     10.81196269     10.80051207     10.77686990     10.74016022    
      10.68256625     10.60430534     10.50403842     10.38336165     10.25435104    
1
  CONCENTRATION IN LAYER   9 AT END OF TIME STEP 200 IN STRESS PERIOD    1
  ---------------------------------------------------------------------------

                1               2               3               4               5               6               7               8               9              10
               11              12              13              14              15              16              17              18              19              20
               21              22              23              24              25
 ................................................................................................................................................................
   1  6.899537640     7.748283362     8.788034561     9.590148280     10.08297857     10.37280017     10.54643010     10.64949626     10.70926553     10.74424195    
      10.76646272     10.78291613     10.79689333     10.80824218     10.81681631     10.81568713     10.81190533     10.80048369     10.77685717     10.74015677    
      10.68256486     10.60430503     10.50403842     10.38336167     10.25435106    
1
  CONCENTRATION IN LAYER  10 AT END OF TIME STEP 200 IN STRESS PERIOD    1
  ---------------------------------------------------------------------------

                1               2               3               4               5               6               7               8               9              10
               11              12              13              14              15              16              17              18              19              20
               21              22              23              24              25
 ................................................................................................................................................................
   1  6.899537640     7.651367748     8.669983087     9.496783422     10.02904713     10.34336737     10.53045609     10.64096110     10.70482622     10.74197190    
      10.76529450     10.78229819     10.79664618     10.80811588     10.81675579     10.81564642     10.81187513     10.80046878     10.77685051     10.74015494    
      10.68256414     10.60430487     10.50403842     10.38336168     10.25435109    

 CONCENTRATION WILL BE SAVED ON UNIT 2021 AT END OF TIME STEP  200, STRESS PERIOD    1


  MASS BUDGET FOR ENTIRE MODEL AT END OF TIME STEP  200, STRESS PERIOD   1
  ---------------------------------------------------------------------------------------------------

     CUMULATIVE MASS      M       RATES FOR THIS TIME STEP      M/T          PACKAGE NAME    
     ------------------                 ------------------------                     ----------------

           IN:                                      IN:
           ---                                      ---
     STORAGE-AQUEOUS =        1858.0400       STORAGE-AQUEOUS =           0.8099     MST                              
                 CHD =        1346.0080                   CHD =           0.6730     SSM_CHD                          
                 CNC =        1801.1837                   CNC =           0.9348     CNC                              

            TOTAL IN =        5005.2318              TOTAL IN =           2.4177

          OUT:                                     OUT:
          ----                                     ----
     STORAGE-AQUEOUS =        1256.1620       STORAGE-AQUEOUS =           0.1175     MST                              
                 CHD =        3224.3616                   CHD =           2.1363     SSM_CHD                          
                 CNC =         524.7082                   CNC =           0.1639     CNC                              

           TOTAL OUT =        5005.2318             TOTAL OUT =           2.4177

            IN - OUT =      -7.5662E-07              IN - OUT =      -1.2557E-11

 PERCENT DISCREPANCY =          -0.00     PERCENT DISCREPANCY =          -0.00




         TIME SUMMARY AT END OF TIME STEP  200 IN STRESS PERIOD    1
                    SECONDS     MINUTES      HOURS       DAYS        YEARS
                    -----------------------------------------------------------
   TIME STEP LENGTH 8.64000E+05  14400.      240.00      10.000     2.73785E-02
 STRESS PERIOD TIME 1.72800E+08 2.88000E+06  48000.      2000.0      5.4757    
         TOTAL TIME 1.72800E+08 2.88000E+06  48000.      2000.0      5.4757    


end timestep

