                                   MODFLOW 6
                U.S. GEOLOGICAL SURVEY MODULAR HYDROLOGIC MODEL
                       GROUNDWATER TRANSPORT MODEL (GWT)
                VERSION 6.5.0.dev0+prt (preliminary) 10/07/2023
                               ***DEVELOP MODE***

   MODFLOW 6 compiled Oct 07 2023 02:19:02 with Intel(R) Fortran Intel(R) 64
   Compiler Classic for applications running on Intel(R) 64, Version 2021.7.0
                             Build 20220726_000000

This software is preliminary or provisional and is subject to 
revision. It is being provided to meet the need for timely best 
science. The software has not received final approval by the U.S. 
Geological Survey (USGS). No warranty, expressed or implied, is made 
by the USGS or the U.S. Government as to the functionality of the 
software and related material nor shall the fact of release 
constitute any such warranty. The software is provided on the 
condition that neither the USGS nor the U.S. Government shall be held 
liable for any damages resulting from the authorized or unauthorized 
use of the software.


As a work of the United States Government, this USGS product is 
in the public domain within the United States. You can copy, 
modify, distribute, and perform the work, even for commercial 
purposes, all without asking permission. Additionally, USGS 
waives copyright and related rights in the work worldwide 
through CC0 1.0 Universal Public Domain Dedication 
(https://creativecommons.org/publicdomain/zero/1.0/).

The following GNU Lesser General Public License (LGPL) libraries
are used in this USGS product:

    SPARSKIT version 2.0
      ilut, luson, and qsplit 
      (https://www-users.cse.umn.edu/~saad/software/SPARSKIT/)

    RCM - Reverse Cuthill McKee Ordering
      (https://people.math.sc.edu/Burkardt/f_src/rcm/rcm.html)

    BLAS - Basic Linear Algebra Subprograms Level 1
      (https://people.math.sc.edu/Burkardt/f_src/blas1_d/blas1_d.html)

    SPARSEKIT - Sparse Matrix Utility Package
      amux, dperm, dvperm, rperm, and cperm
      (https://people.sc.fsu.edu/~jburkardt/f77_src/sparsekit/sparsekit.html)

The following BSD-3 License libraries are used in this USGS product:

    Modern Fortran DAG Library
      Copyright (c) 2018, Jacob Williams
      All rights reserved.
      (https://github.com/jacobwilliams/daglib)

MODFLOW 6 compiler options: /Isrc\libmf6core.a.p /Isrc /I..\src
/Isrc\libmf6_external.a.p /MTd /nologo /warn:general /warn:truncated_source
/stand:f08 /Zi /traceback /O2 /fpe:0 /heap-arrays:0 /traceback /fpp
/Qdiag-disable:7416 /Qdiag-disable:7025 /Qdiag-disable:5268
/Fdsrc\libmf6core.a.p\Utilities_compilerversion.F90.pdb
/module:src\libmf6core.a.p
/Fosrc/libmf6core.a.p/Utilities_compilerversion.F90.obj /c

System command used to initiate simulation:
c:\Users\portega\anaconda3\envs\mf6rtm\python.exe -m ipykernel_launcher --f=c:\Users\portega\AppData\Roaming\jupyter\runtime\kernel-v2-17404iCBvKc1FbHvz.json

MODFLOW was compiled using uniform precision.

Real Variables
  KIND: 8
  TINY (smallest non-zero value):    2.225074-308
  HUGE (largest value):    1.797693+308
  PRECISION: 15
  SIZE IN BITS: 64

Integer Variables
  KIND: 4
  HUGE (largest value): 2147483647
  SIZE IN BITS: 32

Long Integer Variables
  KIND: 8
  HUGE (largest value): 9223372036854775807
  SIZE IN BITS: 64

Logical Variables
  KIND: 4
  SIZE IN BITS: 32
 
 NAMEFILE OPTIONS:
 END NAMEFILE OPTIONS:

 DIS -- STRUCTURED GRID DISCRETIZATION PACKAGE, VERSION 2 : 3/27/2014 - INPUT READ FROM MEMPATH: __INPUT__/CA/DIS                                  


 DSP-- DISPERSION PACKAGE, VERSION 1, 1/24/2018 INPUT READ FROM MEMPATH: __INPUT__/CA/DSP                                  


 Setting Discretization Options
    Model length unit [0=UND, 1=FEET, 2=METERS, 3=CENTIMETERS] set as 2
 End Setting Discretization Options

 Setting Discretization Dimensions
    NLAY = 10
    NROW = 1
    NCOL = 25
 End Setting Discretization Dimensions

 Setting Discretization Griddata
    DELR set from input file
    DELC set from input file
    TOP set from input file
    BOTM set from input file
    IDOMAIN set from input file
 End Setting Discretization Griddata


 FMI -- FLOW MODEL INTERFACE,' VERSION 2, 8/17/2023
  FLOWS PROVIDED BY A GWF MODEL IN THIS SIMULATION

 ADV-- ADVECTION PACKAGE, VERSION 1, 8/25/2017 INPUT READ FROM UNIT 5964


 # File generated by Flopy version 3.5.0.dev0 on 07/12/2024 at 09:44:05.
 PROCESSING ADVECTION OPTIONS
    ADVECTION WEIGHTING SCHEME HAS BEEN SET TO: TVD
 END OF ADVECTION OPTIONS
 Setting DSP Options
    XT3D formulation [0=INACTIVE, 1=ACTIVE, 3=ACTIVE RHS] set to: 0
 End Setting DSP Options

 Setting DSP Griddata
    ALH set from input file
    ATH1 set from input file
    ATV set from input file
 End Setting DSP Griddata


 CNC   -- CNC PACKAGE, VERSION 8, 2/22/2014 INPUT READ FROM UNIT 5998
 # File generated by Flopy version 3.5.0.dev0 on 07/12/2024 at 09:44:05.

 PROCESSING CNC OPTIONS
    CNC FLOWS WILL BE PRINTED TO LISTING FILE.
    FLOWS WILL BE SAVED TO BUDGET FILE SPECIFIED IN OUTPUT CONTROL
 END OF CNC OPTIONS

 PROCESSING CNC DIMENSIONS
    MAXBOUND =       7
 END OF CNC DIMENSIONS

 IC -- INITIAL CONDITIONS PACKAGE, VERSION 8, 3/28/2015 INPUT READ FROM UNIT 5962
 # File generated by Flopy version 3.5.0.dev0 on 07/12/2024 at 09:44:05.
 PROCESSING GRIDDATA

 OPENED Ca.ic_strt_layer1.txt
 FILE TYPE:OPEN/CLOSE   UNIT 6600   STATUS:OLD                 
 FORMAT:FORMATTED              ACCESS:SEQUENTIAL          
 ACTION:READ                


 OPENED Ca.ic_strt_layer2.txt
 FILE TYPE:OPEN/CLOSE   UNIT 6601   STATUS:OLD                 
 FORMAT:FORMATTED              ACCESS:SEQUENTIAL          
 ACTION:READ                


 OPENED Ca.ic_strt_layer3.txt
 FILE TYPE:OPEN/CLOSE   UNIT 6602   STATUS:OLD                 
 FORMAT:FORMATTED              ACCESS:SEQUENTIAL          
 ACTION:READ                


 OPENED Ca.ic_strt_layer4.txt
 FILE TYPE:OPEN/CLOSE   UNIT 6603   STATUS:OLD                 
 FORMAT:FORMATTED              ACCESS:SEQUENTIAL          
 ACTION:READ                


 OPENED Ca.ic_strt_layer5.txt
 FILE TYPE:OPEN/CLOSE   UNIT 6604   STATUS:OLD                 
 FORMAT:FORMATTED              ACCESS:SEQUENTIAL          
 ACTION:READ                


 OPENED Ca.ic_strt_layer6.txt
 FILE TYPE:OPEN/CLOSE   UNIT 6605   STATUS:OLD                 
 FORMAT:FORMATTED              ACCESS:SEQUENTIAL          
 ACTION:READ                


 OPENED Ca.ic_strt_layer7.txt
 FILE TYPE:OPEN/CLOSE   UNIT 6606   STATUS:OLD                 
 FORMAT:FORMATTED              ACCESS:SEQUENTIAL          
 ACTION:READ                


 OPENED Ca.ic_strt_layer8.txt
 FILE TYPE:OPEN/CLOSE   UNIT 6607   STATUS:OLD                 
 FORMAT:FORMATTED              ACCESS:SEQUENTIAL          
 ACTION:READ                


 OPENED Ca.ic_strt_layer9.txt
 FILE TYPE:OPEN/CLOSE   UNIT 6608   STATUS:OLD                 
 FORMAT:FORMATTED              ACCESS:SEQUENTIAL          
 ACTION:READ                


 OPENED Ca.ic_strt_layer10.txt
 FILE TYPE:OPEN/CLOSE   UNIT 6609   STATUS:OLD                 
 FORMAT:FORMATTED              ACCESS:SEQUENTIAL          
 ACTION:READ                

 END PROCESSING GRIDDATA

 MST -- MOBILE STORAGE AND TRANSFER PACKAGE, VERSION 1, 7/29/2020 INPUT READ FROM UNIT 5963


 # File generated by Flopy version 3.5.0.dev0 on 07/12/2024 at 09:44:05.
 PROCESSING MOBILE STORAGE AND TRANSFER OPTIONS
 END OF MOBILE STORAGE AND TRANSFER OPTIONS
 PROCESSING GRIDDATA

 OPENED Ca.mst_porosity.txt
 FILE TYPE:OPEN/CLOSE   UNIT 6610   STATUS:OLD                 
 FORMAT:FORMATTED              ACCESS:SEQUENTIAL          
 ACTION:READ                

 END PROCESSING GRIDDATA

 SSM -- SOURCE-SINK MIXING PACKAGE, VERSION 1, 8/25/2017 INPUT READ FROM UNIT 5996


 # File generated by Flopy version 3.5.0.dev0 on 07/12/2024 at 09:44:05.
 PROCESSING SSM OPTIONS
    SSM FLOW INFORMATION WILL BE PRINTED TO LISTING FILE WHENEVER ICBCFL IS NOT ZERO.
    CELL-BY-CELL FLOW INFORMATION WILL BE SAVED TO BINARY FILE WHENEVER ICBCFL IS NOT ZERO.
 END OF SSM OPTIONS

 OPENED Ca.ssm_sources.txt
 FILE TYPE:OPEN/CLOSE   UNIT 6611   STATUS:OLD                 
 FORMAT:FORMATTED              ACCESS:SEQUENTIAL          
 ACTION:READ                

 PROCESSING SOURCES
 AUX SOURCE DETECTED.
    USING AUX COLUMN 6 IN PACKAGE CHD
 END PROCESSING SOURCES
 OPTIONAL FILEINPUT BLOCK NOT FOUND.  CONTINUING.
      THE LAST TIME STEP WILL BE PRINTED
      THE LAST TIME STEP WILL BE PRINTED
 # File generated by Flopy version 3.5.0.dev0 on 07/12/2024 at 09:44:05.

 PROCESSING OC OPTIONS

    BUDGET INFORMATION WILL BE WRITTEN TO:
      UNIT NUMBER: 6612
      FILE NAME: Ca.cbb

 OPENED Ca.cbb
 FILE TYPE:DATA(BINARY)   UNIT 6612   STATUS:REPLACE             
 FORMAT:UNFORMATTED            ACCESS:STREAM              
 ACTION:READWRITE           

    CONCENTRATION INFORMATION WILL BE WRITTEN TO:
      UNIT NUMBER: 6613
      FILE NAME: Ca.ucn

 OPENED Ca.ucn
 FILE TYPE:DATA(BINARY)   UNIT 6613   STATUS:REPLACE             
 FORMAT:UNFORMATTED            ACCESS:STREAM              
 ACTION:READWRITE           

 END OF OC OPTIONS

start timestep kper="1" kstp="1" mode="normal"


 BEGIN READING OUTPUT CONTROL FOR STRESS PERIOD 1
      ALL TIME STEPS WILL BE SAVED
      ALL TIME STEPS WILL BE SAVED
      ALL TIME STEPS WILL BE PRINTED
      ALL TIME STEPS WILL BE PRINTED

 END READING OUTPUT CONTROL FOR STRESS PERIOD 1

 OPENED Ca.cnc_stress_period_data_1.txt
 FILE TYPE:OPEN/CLOSE   UNIT 6731   STATUS:OLD                 
 FORMAT:FORMATTED              ACCESS:SEQUENTIAL          
 ACTION:READ                

 UBDSV06 SAVING  SOURCE-SINK MIX IN MODEL CA               PACKAGE CA              CONNECTED TO MODEL CA               PACKAGE SSM              ON UNIT   6612 AT TIME STEP      1, STRESS PERIOD      1
 UBDSV06 SAVING              CNC IN MODEL CA               PACKAGE CA              CONNECTED TO MODEL CA               PACKAGE CNC              ON UNIT   6612 AT TIME STEP      1, STRESS PERIOD      1

 SSM PACKAGE (SSM) FLOW RATES   PERIOD      1   STEP        1
 ------------------------------------------------------------------------------------------------
   NUMBER   CELLID                   BOUND Q        SSM CONC          RATE         PACKAGE NAME  
 ------------------------------------------------------------------------------------------------
     1      (1,1,1)               2.08333361E-02  10.768065       0.22433471           CHD       
     2      (2,1,1)               2.08333361E-02  10.768065       0.22433471           CHD       
     3      (3,1,1)               2.08333361E-02  10.768065       0.22433471           CHD       
     4      (4,1,1)               0.0000000       0.0000000       0.0000000            CHD       
     5      (5,1,1)               0.0000000       0.0000000       0.0000000            CHD       
     6      (6,1,1)               0.0000000       0.0000000       0.0000000            CHD       
     7      (7,1,1)               0.0000000       0.0000000       0.0000000            CHD       
     8      (8,1,1)               0.0000000       0.0000000       0.0000000            CHD       
     9      (9,1,1)               0.0000000       0.0000000       0.0000000            CHD       
     10     (10,1,1)              0.0000000       0.0000000       0.0000000            CHD       
     11     (1,1,25)             -2.08333402E-02  6.9256857      -0.14428517           CHD       
     12     (2,1,25)             -2.08333402E-02  6.9256857      -0.14428517           CHD       
     13     (3,1,25)             -2.08333402E-02  6.9256857      -0.14428517           CHD       
     14     (4,1,25)             -2.08333403E-02  6.9256857      -0.14428517           CHD       
     15     (5,1,25)             -2.08333403E-02  6.9256857      -0.14428517           CHD       
     16     (6,1,25)             -2.08333403E-02  6.9256857      -0.14428517           CHD       
     17     (7,1,25)             -2.08333403E-02  6.9256857      -0.14428517           CHD       
     18     (8,1,25)             -2.08333403E-02  6.9256857      -0.14428517           CHD       
     19     (9,1,25)             -2.08333403E-02  6.9256857      -0.14428517           CHD       
     20     (10,1,25)            -2.08333403E-02  6.9256857      -0.14428517           CHD       
 ------------------------------------------------------------------------------------------------




 CNC PACKAGE (CNC) FLOW RATES   PERIOD      1   STEP        1
 -----------------------------------------------
   NUMBER   CELLID                    RATE      
 -----------------------------------------------
     1      (4,1,1)               8.36555606E-02
     2      (5,1,1)               0.14336405    
     3      (6,1,1)               0.14342470    
     4      (7,1,1)               0.14344985    
     5      (8,1,1)               0.14346021    
     6      (9,1,1)               0.14346438    
     7      (10,1,1)              0.14346585    
 -----------------------------------------------



1
  CONCENTRATION IN LAYER   1 AT END OF TIME STEP   1 IN STRESS PERIOD    1
  ---------------------------------------------------------------------------

                1               2               3               4               5               6               7               8               9              10
               11              12              13              14              15              16              17              18              19              20
               21              22              23              24              25
 ................................................................................................................................................................
   1  7.342278649     6.997158633     6.932293793     6.926260717     6.925736719     6.925690357     6.925686136     6.925685744     6.925685732     6.925685751    
      6.925685752     6.925685733     6.925685708     6.925685698     6.925685701     6.925685705     6.925685703     6.925685698     6.925685695     6.925685697    
      6.925685701     6.925685707     6.925685713     6.925685720     6.925685723    
1
  CONCENTRATION IN LAYER   2 AT END OF TIME STEP   1 IN STRESS PERIOD    1
  ---------------------------------------------------------------------------

                1               2               3               4               5               6               7               8               9              10
               11              12              13              14              15              16              17              18              19              20
               21              22              23              24              25
 ................................................................................................................................................................
   1  7.301220469     6.987700327     6.931479014     6.926203397     6.925732651     6.925690069     6.925686109     6.925685731     6.925685735     6.925685771    
      6.925685772     6.925685737     6.925685695     6.925685680     6.925685686     6.925685693     6.925685690     6.925685682     6.925685677     6.925685680    
      6.925685688     6.925685698     6.925685708     6.925685719     6.925685722    
1
  CONCENTRATION IN LAYER   3 AT END OF TIME STEP   1 IN STRESS PERIOD    1
  ---------------------------------------------------------------------------

                1               2               3               4               5               6               7               8               9              10
               11              12              13              14              15              16              17              18              19              20
               21              22              23              24              25
 ................................................................................................................................................................
   1  7.185432212     6.967715449     6.930035872     6.926105286     6.925725526     6.925689547     6.925686058     6.925685708     6.925685738     6.925685804    
      6.925685803     6.925685742     6.925685673     6.925685651     6.925685664     6.925685676     6.925685670     6.925685657     6.925685649     6.925685655    
      6.925685668     6.925685685     6.925685699     6.925685717     6.925685722    
1
  CONCENTRATION IN LAYER   4 AT END OF TIME STEP   1 IN STRESS PERIOD    1
  ---------------------------------------------------------------------------

                1               2               3               4               5               6               7               8               9              10
               11              12              13              14              15              16              17              18              19              20
               21              22              23              24              25
 ................................................................................................................................................................
   1  6.899537640     6.939738534     6.928494759     6.925995471     6.925716909     6.925688874     6.925685991     6.925685685     6.925685741     6.925685835    
      6.925685832     6.925685748     6.925685655     6.925685628     6.925685647     6.925685664     6.925685656     6.925685636     6.925685626     6.925685633    
      6.925685651     6.925685673     6.925685691     6.925685715     6.925685722    
1
  CONCENTRATION IN LAYER   5 AT END OF TIME STEP   1 IN STRESS PERIOD    1
  ---------------------------------------------------------------------------

                1               2               3               4               5               6               7               8               9              10
               11              12              13              14              15              16              17              18              19              20
               21              22              23              24              25
 ................................................................................................................................................................
   1  6.899537640     6.928440477     6.926965900     6.925884450     6.925708107     6.925688149     6.925685921     6.925685668     6.925685742     6.925685854    
      6.925685850     6.925685752     6.925685646     6.925685617     6.925685640     6.925685660     6.925685650     6.925685626     6.925685613     6.925685621    
      6.925685641     6.925685666     6.925685686     6.925685713     6.925685722    
1
  CONCENTRATION IN LAYER   6 AT END OF TIME STEP   1 IN STRESS PERIOD    1
  ---------------------------------------------------------------------------

                1               2               3               4               5               6               7               8               9              10
               11              12              13              14              15              16              17              18              19              20
               21              22              23              24              25
 ................................................................................................................................................................
   1  6.899537640     6.923782480     6.926062885     6.925789392     6.925700163     6.925687463     6.925685858     6.925685660     6.925685743     6.925685860    
      6.925685856     6.925685754     6.925685644     6.925685614     6.925685639     6.925685661     6.925685650     6.925685625     6.925685610     6.925685618    
      6.925685639     6.925685663     6.925685684     6.925685711     6.925685722    
1
  CONCENTRATION IN LAYER   7 AT END OF TIME STEP   1 IN STRESS PERIOD    1
  ---------------------------------------------------------------------------

                1               2               3               4               5               6               7               8               9              10
               11              12              13              14              15              16              17              18              19              20
               21              22              23              24              25
 ................................................................................................................................................................
   1  6.899537640     6.921851198     6.925592521     6.925718309     6.925693696     6.925686879     6.925685808     6.925685659     6.925685742     6.925685856    
      6.925685852     6.925685754     6.925685648     6.925685619     6.925685643     6.925685664     6.925685654     6.925685629     6.925685614     6.925685622    
      6.925685641     6.925685665     6.925685684     6.925685711     6.925685722    
1
  CONCENTRATION IN LAYER   8 AT END OF TIME STEP   1 IN STRESS PERIOD    1
  ---------------------------------------------------------------------------

                1               2               3               4               5               6               7               8               9              10
               11              12              13              14              15              16              17              18              19              20
               21              22              23              24              25
 ................................................................................................................................................................
   1  6.899537640     6.921055638     6.925351366     6.925678840     6.925688347     6.925686408     6.925685772     6.925685664     6.925685740     6.925685843    
      6.925685840     6.925685752     6.925685656     6.925685629     6.925685651     6.925685670     6.925685660     6.925685638     6.925685625     6.925685631    
      6.925685648     6.925685670     6.925685687     6.925685712     6.925685722    
1
  CONCENTRATION IN LAYER   9 AT END OF TIME STEP   1 IN STRESS PERIOD    1
  ---------------------------------------------------------------------------

                1               2               3               4               5               6               7               8               9              10
               11              12              13              14              15              16              17              18              19              20
               21              22              23              24              25
 ................................................................................................................................................................
   1  6.899537640     6.920734927     6.925235443     6.925657764     6.925685386     6.925686016     6.925685753     6.925685676     6.925685737     6.925685820    
      6.925685818     6.925685747     6.925685669     6.925685646     6.925685663     6.925685678     6.925685671     6.925685653     6.925685642     6.925685647    
      6.925685661     6.925685679     6.925685693     6.925685713     6.925685722    
1
  CONCENTRATION IN LAYER  10 AT END OF TIME STEP   1 IN STRESS PERIOD    1
  ---------------------------------------------------------------------------

                1               2               3               4               5               6               7               8               9              10
               11              12              13              14              15              16              17              18              19              20
               21              22              23              24              25
 ................................................................................................................................................................
   1  6.899537640     6.920621779     6.925189239     6.925648688     6.925684012     6.925685822     6.925685746     6.925685698     6.925685730     6.925685778    
      6.925685778     6.925685740     6.925685693     6.925685677     6.925685686     6.925685695     6.925685692     6.925685682     6.925685675     6.925685678    
      6.925685685     6.925685696     6.925685705     6.925685716     6.925685722    

 CONCENTRATION WILL BE SAVED ON UNIT 6613 AT END OF TIME STEP    1, STRESS PERIOD    1


  MASS BUDGET FOR ENTIRE MODEL AT END OF TIME STEP    1, STRESS PERIOD   1
  ---------------------------------------------------------------------------------------------------

     CUMULATIVE MASS      M       RATES FOR THIS TIME STEP      M/T          PACKAGE NAME    
     ------------------                 ------------------------                     ----------------

           IN:                                      IN:
           ---                                      ---
     STORAGE-AQUEOUS =       3.0573E-02       STORAGE-AQUEOUS =       3.0573E-03     MST                              
                 CHD =           6.7300                   CHD =           0.6730     SSM_CHD                          
                 CNC =          10.0385                   CNC =           1.0038     CNC                              

            TOTAL IN =          16.7991              TOTAL IN =           1.6799

          OUT:                                     OUT:
          ----                                     ----
     STORAGE-AQUEOUS =           1.7749       STORAGE-AQUEOUS =           0.1775     MST                              
                 CHD =          14.4285                   CHD =           1.4429     SSM_CHD                          
                 CNC =           0.5956                   CNC =       5.9561E-02     CNC                              

           TOTAL OUT =          16.7991             TOTAL OUT =           1.6799

            IN - OUT =       8.6186E-10              IN - OUT =       8.6187E-11

 PERCENT DISCREPANCY =           0.00     PERCENT DISCREPANCY =           0.00




         TIME SUMMARY AT END OF TIME STEP    1 IN STRESS PERIOD    1
                    SECONDS     MINUTES      HOURS       DAYS        YEARS
                    -----------------------------------------------------------
   TIME STEP LENGTH 8.64000E+05  14400.      240.00      10.000     2.73785E-02
 STRESS PERIOD TIME 8.64000E+05  14400.      240.00      10.000     2.73785E-02
         TOTAL TIME 8.64000E+05  14400.      240.00      10.000     2.73785E-02


end timestep


start timestep kper="1" kstp="2" mode="normal"

 UBDSV06 SAVING  SOURCE-SINK MIX IN MODEL CA               PACKAGE CA              CONNECTED TO MODEL CA               PACKAGE SSM              ON UNIT   6612 AT TIME STEP      2, STRESS PERIOD      1
 UBDSV06 SAVING              CNC IN MODEL CA               PACKAGE CA              CONNECTED TO MODEL CA               PACKAGE CNC              ON UNIT   6612 AT TIME STEP      2, STRESS PERIOD      1

 SSM PACKAGE (SSM) FLOW RATES   PERIOD      1   STEP        2
 ------------------------------------------------------------------------------------------------
   NUMBER   CELLID                   BOUND Q        SSM CONC          RATE         PACKAGE NAME  
 ------------------------------------------------------------------------------------------------
     1      (1,1,1)               2.08333319E-02  10.768065       0.22433466           CHD       
     2      (2,1,1)               2.08333319E-02  10.768065       0.22433466           CHD       
     3      (3,1,1)               2.08333319E-02  10.768065       0.22433466           CHD       
     4      (4,1,1)               0.0000000       0.0000000       0.0000000            CHD       
     5      (5,1,1)               0.0000000       0.0000000       0.0000000            CHD       
     6      (6,1,1)               0.0000000       0.0000000       0.0000000            CHD       
     7      (7,1,1)               0.0000000       0.0000000       0.0000000            CHD       
     8      (8,1,1)               0.0000000       0.0000000       0.0000000            CHD       
     9      (9,1,1)               0.0000000       0.0000000       0.0000000            CHD       
     10     (10,1,1)              0.0000000       0.0000000       0.0000000            CHD       
     11     (1,1,25)             -2.08333370E-02  6.9256857      -0.14428514           CHD       
     12     (2,1,25)             -2.08333370E-02  6.9256857      -0.14428514           CHD       
     13     (3,1,25)             -2.08333370E-02  6.9256857      -0.14428514           CHD       
     14     (4,1,25)             -2.08333370E-02  6.9256857      -0.14428514           CHD       
     15     (5,1,25)             -2.08333370E-02  6.9256857      -0.14428514           CHD       
     16     (6,1,25)             -2.08333370E-02  6.9256857      -0.14428514           CHD       
     17     (7,1,25)             -2.08333370E-02  6.9256857      -0.14428514           CHD       
     18     (8,1,25)             -2.08333370E-02  6.9256857      -0.14428514           CHD       
     19     (9,1,25)             -2.08333370E-02  6.9256857      -0.14428514           CHD       
     20     (10,1,25)            -2.08333370E-02  6.9256857      -0.14428514           CHD       
 ------------------------------------------------------------------------------------------------




 CNC PACKAGE (CNC) FLOW RATES   PERIOD      1   STEP        2
 -----------------------------------------------
   NUMBER   CELLID                    RATE      
 -----------------------------------------------
     1      (4,1,1)              -0.28378008    
     2      (5,1,1)               0.14119887    
     3      (6,1,1)               0.14240065    
     4      (7,1,1)               0.14297197    
     5      (8,1,1)               0.14323687    
     6      (9,1,1)               0.14335542    
     7      (10,1,1)              0.14340050    
 -----------------------------------------------



1
  CONCENTRATION IN LAYER   1 AT END OF TIME STEP   2 IN STRESS PERIOD    1
  ---------------------------------------------------------------------------

                1               2               3               4               5               6               7               8               9              10
               11              12              13              14              15              16              17              18              19              20
               21              22              23              24              25
 ................................................................................................................................................................
   1  10.66649461     8.130190216     7.116611639     6.949693130     6.928506426     6.926008483     6.925700940     6.925683663     6.925684773     6.925685586    
      6.925685719     6.925685721     6.925685706     6.925685692     6.925685685     6.925685680     6.925685675     6.925685671     6.925685670     6.925685674    
      6.925685681     6.925685691     6.925685701     6.925685715     6.925685721    
1
  CONCENTRATION IN LAYER   2 AT END OF TIME STEP   2 IN STRESS PERIOD    1
  ---------------------------------------------------------------------------

                1               2               3               4               5               6               7               8               9              10
               11              12              13              14              15              16              17              18              19              20
               21              22              23              24              25
 ................................................................................................................................................................
   1  10.13304693     7.965378125     7.096728607     6.947864445     6.928343408     6.925991584     6.925697463     6.925683377     6.925684735     6.925685586    
      6.925685711     6.925685714     6.925685701     6.925685685     6.925685673     6.925685663     6.925685656     6.925685652     6.925685654     6.925685659    
      6.925685669     6.925685681     6.925685695     6.925685714     6.925685721    
1
  CONCENTRATION IN LAYER   3 AT END OF TIME STEP   2 IN STRESS PERIOD    1
  ---------------------------------------------------------------------------

                1               2               3               4               5               6               7               8               9              10
               11              12              13              14              15              16              17              18              19              20
               21              22              23              24              25
 ................................................................................................................................................................
   1  8.927629265     7.654668612     7.062959705     6.944733327     6.928052052     6.925960250     6.925692117     6.925682978     6.925684685     6.925685586    
      6.925685697     6.925685704     6.925685694     6.925685677     6.925685656     6.925685637     6.925685626     6.925685624     6.925685628     6.925685637    
      6.925685649     6.925685666     6.925685684     6.925685711     6.925685721    
1
  CONCENTRATION IN LAYER   4 AT END OF TIME STEP   2 IN STRESS PERIOD    1
  ---------------------------------------------------------------------------

                1               2               3               4               5               6               7               8               9              10
               11              12              13              14              15              16              17              18              19              20
               21              22              23              24              25
 ................................................................................................................................................................
   1  6.899537640     7.283643721     7.026882677     6.941073867     6.927683397     6.925919269     6.925686908     6.925682661     6.925684656     6.925685588    
      6.925685688     6.925685697     6.925685689     6.925685670     6.925685641     6.925685615     6.925685600     6.925685599     6.925685605     6.925685616    
      6.925685631     6.925685652     6.925685674     6.925685707     6.925685720    
1
  CONCENTRATION IN LAYER   5 AT END OF TIME STEP   2 IN STRESS PERIOD    1
  ---------------------------------------------------------------------------

                1               2               3               4               5               6               7               8               9              10
               11              12              13              14              15              16              17              18              19              20
               21              22              23              24              25
 ................................................................................................................................................................
   1  6.899537640     7.094723693     6.989642157     6.937110957     6.927283377     6.925874694     6.925683104     6.925682524     6.925684676     6.925685596    
      6.925685685     6.925685695     6.925685688     6.925685667     6.925685633     6.925685602     6.925685586     6.925685585     6.925685591     6.925685604    
      6.925685620     6.925685642     6.925685667     6.925685704     6.925685720    
1
  CONCENTRATION IN LAYER   6 AT END OF TIME STEP   2 IN STRESS PERIOD    1
  ---------------------------------------------------------------------------

                1               2               3               4               5               6               7               8               9              10
               11              12              13              14              15              16              17              18              19              20
               21              22              23              24              25
 ................................................................................................................................................................
   1  6.899537640     7.002427526     6.962570746     6.933574759     6.926901903     6.925832279     6.925681090     6.925682533     6.925684763     6.925685608    
      6.925685686     6.925685696     6.925685688     6.925685666     6.925685631     6.925685600     6.925685582     6.925685581     6.925685587     6.925685600    
      6.925685616     6.925685639     6.925685664     6.925685702     6.925685720    
1
  CONCENTRATION IN LAYER   7 AT END OF TIME STEP   2 IN STRESS PERIOD    1
  ---------------------------------------------------------------------------

                1               2               3               4               5               6               7               8               9              10
               11              12              13              14              15              16              17              18              19              20
               21              22              23              24              25
 ................................................................................................................................................................
   1  6.899537640     6.958549929     6.945676789     6.930859410     6.926578217     6.925796387     6.925680554     6.925682737     6.925684864     6.925685620    
      6.925685690     6.925685698     6.925685690     6.925685669     6.925685635     6.925685605     6.925685587     6.925685586     6.925685592     6.925685603    
      6.925685619     6.925685640     6.925685665     6.925685702     6.925685719    
1
  CONCENTRATION IN LAYER   8 AT END OF TIME STEP   2 IN STRESS PERIOD    1
  ---------------------------------------------------------------------------

                1               2               3               4               5               6               7               8               9              10
               11              12              13              14              15              16              17              18              19              20
               21              22              23              24              25
 ................................................................................................................................................................
   1  6.899537640     6.938205134     6.936060971     6.929000222     6.926332168     6.925769465     6.925680955     6.925683063     6.925684958     6.925685629    
      6.925685694     6.925685701     6.925685693     6.925685673     6.925685643     6.925685615     6.925685599     6.925685597     6.925685603     6.925685613    
      6.925685627     6.925685647     6.925685669     6.925685703     6.925685720    
1
  CONCENTRATION IN LAYER   9 AT END OF TIME STEP   2 IN STRESS PERIOD    1
  ---------------------------------------------------------------------------

                1               2               3               4               5               6               7               8               9              10
               11              12              13              14              15              16              17              18              19              20
               21              22              23              24              25
 ................................................................................................................................................................
   1  6.899537640     6.929100994     6.931156921     6.927847731     6.926167661     6.925752184     6.925681708     6.925683372     6.925685026     6.925685636    
      6.925685702     6.925685707     6.925685697     6.925685678     6.925685654     6.925685632     6.925685619     6.925685616     6.925685620     6.925685628    
      6.925685640     6.925685657     6.925685676     6.925685705     6.925685720    
1
  CONCENTRATION IN LAYER  10 AT END OF TIME STEP   2 IN STRESS PERIOD    1
  ---------------------------------------------------------------------------

                1               2               3               4               5               6               7               8               9              10
               11              12              13              14              15              16              17              18              19              20
               21              22              23              24              25
 ................................................................................................................................................................
   1  6.899537640     6.925638870     6.929143764     6.927289856     6.926085014     6.925743989     6.925682260     6.925683531     6.925685048     6.925685650    
      6.925685726     6.925685720     6.925685698     6.925685679     6.925685667     6.925685658     6.925685649     6.925685643     6.925685642     6.925685648    
      6.925685658     6.925685672     6.925685687     6.925685708     6.925685720    

 CONCENTRATION WILL BE SAVED ON UNIT 6613 AT END OF TIME STEP    2, STRESS PERIOD    1


  MASS BUDGET FOR ENTIRE MODEL AT END OF TIME STEP    2, STRESS PERIOD   1
  ---------------------------------------------------------------------------------------------------

     CUMULATIVE MASS      M       RATES FOR THIS TIME STEP      M/T          PACKAGE NAME    
     ------------------                 ------------------------                     ----------------

           IN:                                      IN:
           ---                                      ---
     STORAGE-AQUEOUS =           4.4990       STORAGE-AQUEOUS =           0.4468     MST                              
                 CHD =          13.4601                   CHD =           0.6730     SSM_CHD                          
                 CNC =          19.9915                   CNC =           0.9953     CNC                              

            TOTAL IN =          37.9505              TOTAL IN =           2.1151

          OUT:                                     OUT:
          ----                                     ----
     STORAGE-AQUEOUS =           4.2727       STORAGE-AQUEOUS =           0.2498     MST                              
                 CHD =          28.8570                   CHD =           1.4429     SSM_CHD                          
                 CNC =           4.8208                   CNC =           0.4225     CNC                              

           TOTAL OUT =          37.9505             TOTAL OUT =           2.1151

            IN - OUT =       6.1897E-10              IN - OUT =      -2.4289E-11

 PERCENT DISCREPANCY =           0.00     PERCENT DISCREPANCY =          -0.00




         TIME SUMMARY AT END OF TIME STEP    2 IN STRESS PERIOD    1
                    SECONDS     MINUTES      HOURS       DAYS        YEARS
                    -----------------------------------------------------------
   TIME STEP LENGTH 8.64000E+05  14400.      240.00      10.000     2.73785E-02
 STRESS PERIOD TIME 1.72800E+06  28800.      480.00      20.000     5.47570E-02
         TOTAL TIME 1.72800E+06  28800.      480.00      20.000     5.47570E-02


end timestep


start timestep kper="1" kstp="3" mode="normal"

 UBDSV06 SAVING  SOURCE-SINK MIX IN MODEL CA               PACKAGE CA              CONNECTED TO MODEL CA               PACKAGE SSM              ON UNIT   6612 AT TIME STEP      3, STRESS PERIOD      1
 UBDSV06 SAVING              CNC IN MODEL CA               PACKAGE CA              CONNECTED TO MODEL CA               PACKAGE CNC              ON UNIT   6612 AT TIME STEP      3, STRESS PERIOD      1

 SSM PACKAGE (SSM) FLOW RATES   PERIOD      1   STEP        3
 ------------------------------------------------------------------------------------------------
   NUMBER   CELLID                   BOUND Q        SSM CONC          RATE         PACKAGE NAME  
 ------------------------------------------------------------------------------------------------
     1      (1,1,1)               2.08333325E-02  10.768065       0.22433467           CHD       
     2      (2,1,1)               2.08333325E-02  10.768065       0.22433467           CHD       
     3      (3,1,1)               2.08333325E-02  10.768065       0.22433467           CHD       
     4      (4,1,1)               0.0000000       0.0000000       0.0000000            CHD       
     5      (5,1,1)               0.0000000       0.0000000       0.0000000            CHD       
     6      (6,1,1)               0.0000000       0.0000000       0.0000000            CHD       
     7      (7,1,1)               0.0000000       0.0000000       0.0000000            CHD       
     8      (8,1,1)               0.0000000       0.0000000       0.0000000            CHD       
     9      (9,1,1)               0.0000000       0.0000000       0.0000000            CHD       
     10     (10,1,1)              0.0000000       0.0000000       0.0000000            CHD       
     11     (1,1,25)             -2.08333362E-02  6.9256857      -0.14428514           CHD       
     12     (2,1,25)             -2.08333362E-02  6.9256857      -0.14428514           CHD       
     13     (3,1,25)             -2.08333362E-02  6.9256857      -0.14428514           CHD       
     14     (4,1,25)             -2.08333362E-02  6.9256857      -0.14428514           CHD       
     15     (5,1,25)             -2.08333362E-02  6.9256857      -0.14428514           CHD       
     16     (6,1,25)             -2.08333362E-02  6.9256857      -0.14428514           CHD       
     17     (7,1,25)             -2.08333362E-02  6.9256857      -0.14428514           CHD       
     18     (8,1,25)             -2.08333362E-02  6.9256857      -0.14428514           CHD       
     19     (9,1,25)             -2.08333362E-02  6.9256857      -0.14428514           CHD       
     20     (10,1,25)            -2.08333362E-02  6.9256857      -0.14428514           CHD       
 ------------------------------------------------------------------------------------------------




 CNC PACKAGE (CNC) FLOW RATES   PERIOD      1   STEP        3
 -----------------------------------------------
   NUMBER   CELLID                    RATE      
 -----------------------------------------------
     1      (4,1,1)              -0.51720867    
     2      (5,1,1)               0.13827612    
     3      (6,1,1)               0.14086190    
     4      (7,1,1)               0.14218052    
     5      (8,1,1)               0.14283252    
     6      (9,1,1)               0.14313908    
     7      (10,1,1)              0.14326075    
 -----------------------------------------------



1
  CONCENTRATION IN LAYER   1 AT END OF TIME STEP   3 IN STRESS PERIOD    1
  ---------------------------------------------------------------------------

                1               2               3               4               5               6               7               8               9              10
               11              12              13              14              15              16              17              18              19              20
               21              22              23              24              25
 ................................................................................................................................................................
   1  12.95199116     9.302846704     7.393279007     6.996048389     6.935275976     6.926924792     6.925822449     6.925697833     6.925684798     6.925685426    
      6.925685744     6.925685757     6.925685714     6.925685682     6.925685667     6.925685658     6.925685652     6.925685648     6.925685648     6.925685652    
      6.925685662     6.925685675     6.925685690     6.925685709     6.925685719    
1
  CONCENTRATION IN LAYER   2 AT END OF TIME STEP   3 IN STRESS PERIOD    1
  ---------------------------------------------------------------------------

                1               2               3               4               5               6               7               8               9              10
               11              12              13              14              15              16              17              18              19              20
               21              22              23              24              25
 ................................................................................................................................................................
   1  12.01919121     8.977614906     7.347438248     6.991176044     6.934763629     6.926867638     6.925815505     6.925698209     6.925684703     6.925685348    
      6.925685775     6.925685755     6.925685706     6.925685672     6.925685654     6.925685643     6.925685636     6.925685632     6.925685633     6.925685638    
      6.925685650     6.925685666     6.925685684     6.925685707     6.925685719    
1
  CONCENTRATION IN LAYER   3 AT END OF TIME STEP   3 IN STRESS PERIOD    1
  ---------------------------------------------------------------------------

                1               2               3               4               5               6               7               8               9              10
               11              12              13              14              15              16              17              18              19              20
               21              22              23              24              25
 ................................................................................................................................................................
   1  10.02228302     8.382894455     7.269745571     6.982757918     6.933839837     6.926762003     6.925803858     6.925698163     6.925684567     6.925685306    
      6.925685785     6.925685748     6.925685695     6.925685656     6.925685633     6.925685619     6.925685610     6.925685607     6.925685609     6.925685617    
      6.925685631     6.925685652     6.925685675     6.925685704     6.925685719    
1
  CONCENTRATION IN LAYER   4 AT END OF TIME STEP   3 IN STRESS PERIOD    1
  ---------------------------------------------------------------------------

                1               2               3               4               5               6               7               8               9              10
               11              12              13              14              15              16              17              18              19              20
               21              22              23              24              25
 ................................................................................................................................................................
   1  6.899537640     7.696499217     7.183907278     6.972657480     6.932654710     6.926623151     6.925790244     6.925696745     6.925684469     6.925685303    
      6.925685789     6.925685743     6.925685686     6.925685643     6.925685615     6.925685598     6.925685588     6.925685584     6.925685587     6.925685596    
      6.925685614     6.925685638     6.925685665     6.925685700     6.925685718    
1
  CONCENTRATION IN LAYER   5 AT END OF TIME STEP   3 IN STRESS PERIOD    1
  ---------------------------------------------------------------------------

                1               2               3               4               5               6               7               8               9              10
               11              12              13              14              15              16              17              18              19              20
               21              22              23              24              25
 ................................................................................................................................................................
   1  6.899537640     7.319191139     7.096112466     6.961565575     6.931350826     6.926469321     6.925775706     6.925694793     6.925684335     6.925685307    
      6.925685792     6.925685740     6.925685681     6.925685636     6.925685604     6.925685585     6.925685573     6.925685570     6.925685572     6.925685583    
      6.925685602     6.925685629     6.925685658     6.925685697     6.925685717    
1
  CONCENTRATION IN LAYER   6 AT END OF TIME STEP   3 IN STRESS PERIOD    1
  ---------------------------------------------------------------------------

                1               2               3               4               5               6               7               8               9              10
               11              12              13              14              15              16              17              18              19              20
               21              22              23              24              25
 ................................................................................................................................................................
   1  6.899537640     7.120603169     7.029587750     6.951339805     6.930082612     6.926318093     6.925761172     6.925692959     6.925684243     6.925685309    
      6.925685794     6.925685741     6.925685681     6.925685634     6.925685601     6.925685581     6.925685569     6.925685565     6.925685568     6.925685578    
      6.925685597     6.925685625     6.925685655     6.925685695     6.925685717    
1
  CONCENTRATION IN LAYER   7 AT END OF TIME STEP   3 IN STRESS PERIOD    1
  ---------------------------------------------------------------------------

                1               2               3               4               5               6               7               8               9              10
               11              12              13              14              15              16              17              18              19              20
               21              22              23              24              25
 ................................................................................................................................................................
   1  6.899537640     7.019333276     6.985857881     6.943158477     6.928982135     6.926184301     6.925747698     6.925691474     6.925684262     6.925685310    
      6.925685797     6.925685746     6.925685684     6.925685637     6.925685605     6.925685585     6.925685573     6.925685569     6.925685571     6.925685581    
      6.925685599     6.925685626     6.925685655     6.925685694     6.925685717    
1
  CONCENTRATION IN LAYER   8 AT END OF TIME STEP   3 IN STRESS PERIOD    1
  ---------------------------------------------------------------------------

                1               2               3               4               5               6               7               8               9              10
               11              12              13              14              15              16              17              18              19              20
               21              22              23              24              25
 ................................................................................................................................................................
   1  6.899537640     6.969260096     6.959617981     6.937346625     6.928131151     6.926078460     6.925736173     6.925690369     6.925684394     6.925685308    
      6.925685804     6.925685754     6.925685689     6.925685643     6.925685614     6.925685596     6.925685585     6.925685580     6.925685581     6.925685590    
      6.925685607     6.925685632     6.925685659     6.925685695     6.925685717    
1
  CONCENTRATION IN LAYER   9 AT END OF TIME STEP   3 IN STRESS PERIOD    1
  ---------------------------------------------------------------------------

                1               2               3               4               5               6               7               8               9              10
               11              12              13              14              15              16              17              18              19              20
               21              22              23              24              25
 ................................................................................................................................................................
   1  6.899537640     6.945715981     6.945330149     6.933743844     6.927563275     6.926006465     6.925727383     6.925689558     6.925684595     6.925685296    
      6.925685821     6.925685767     6.925685696     6.925685652     6.925685627     6.925685611     6.925685601     6.925685596     6.925685597     6.925685604    
      6.925685619     6.925685641     6.925685665     6.925685697     6.925685717    
1
  CONCENTRATION IN LAYER  10 AT END OF TIME STEP   3 IN STRESS PERIOD    1
  ---------------------------------------------------------------------------

                1               2               3               4               5               6               7               8               9              10
               11              12              13              14              15              16              17              18              19              20
               21              22              23              24              25
 ................................................................................................................................................................
   1  6.899537640     6.936372106     6.939264632     6.931987648     6.927279851     6.925970424     6.925722523     6.925688873     6.925684792     6.925685269    
      6.925685847     6.925685781     6.925685704     6.925685665     6.925685644     6.925685631     6.925685621     6.925685615     6.925685615     6.925685622    
      6.925685634     6.925685652     6.925685673     6.925685700     6.925685717    

 CONCENTRATION WILL BE SAVED ON UNIT 6613 AT END OF TIME STEP    3, STRESS PERIOD    1


  MASS BUDGET FOR ENTIRE MODEL AT END OF TIME STEP    3, STRESS PERIOD   1
  ---------------------------------------------------------------------------------------------------

     CUMULATIVE MASS      M       RATES FOR THIS TIME STEP      M/T          PACKAGE NAME    
     ------------------                 ------------------------                     ----------------

           IN:                                      IN:
           ---                                      ---
     STORAGE-AQUEOUS =          12.6496       STORAGE-AQUEOUS =           0.8151     MST                              
                 CHD =          20.1901                   CHD =           0.6730     SSM_CHD                          
                 CNC =          29.8306                   CNC =           0.9839     CNC                              

            TOTAL IN =          62.6704              TOTAL IN =           2.4720

          OUT:                                     OUT:
          ----                                     ----
     STORAGE-AQUEOUS =           8.0583       STORAGE-AQUEOUS =           0.3786     MST                              
                 CHD =          43.2855                   CHD =           1.4429     SSM_CHD                          
                 CNC =          11.3265                   CNC =           0.6506     CNC                              

           TOTAL OUT =          62.6704             TOTAL OUT =           2.4720

            IN - OUT =       5.1566E-10              IN - OUT =      -1.0332E-11

 PERCENT DISCREPANCY =           0.00     PERCENT DISCREPANCY =          -0.00




         TIME SUMMARY AT END OF TIME STEP    3 IN STRESS PERIOD    1
                    SECONDS     MINUTES      HOURS       DAYS        YEARS
                    -----------------------------------------------------------
   TIME STEP LENGTH 8.64000E+05  14400.      240.00      10.000     2.73785E-02
 STRESS PERIOD TIME 2.59200E+06  43200.      720.00      30.000     8.21355E-02
         TOTAL TIME 2.59200E+06  43200.      720.00      30.000     8.21355E-02


end timestep


start timestep kper="1" kstp="4" mode="normal"

 UBDSV06 SAVING  SOURCE-SINK MIX IN MODEL CA               PACKAGE CA              CONNECTED TO MODEL CA               PACKAGE SSM              ON UNIT   6612 AT TIME STEP      4, STRESS PERIOD      1
 UBDSV06 SAVING              CNC IN MODEL CA               PACKAGE CA              CONNECTED TO MODEL CA               PACKAGE CNC              ON UNIT   6612 AT TIME STEP      4, STRESS PERIOD      1

 SSM PACKAGE (SSM) FLOW RATES   PERIOD      1   STEP        4
 ------------------------------------------------------------------------------------------------
   NUMBER   CELLID                   BOUND Q        SSM CONC          RATE         PACKAGE NAME  
 ------------------------------------------------------------------------------------------------
     1      (1,1,1)               2.08333321E-02  10.768065       0.22433467           CHD       
     2      (2,1,1)               2.08333321E-02  10.768065       0.22433467           CHD       
     3      (3,1,1)               2.08333321E-02  10.768065       0.22433467           CHD       
     4      (4,1,1)               0.0000000       0.0000000       0.0000000            CHD       
     5      (5,1,1)               0.0000000       0.0000000       0.0000000            CHD       
     6      (6,1,1)               0.0000000       0.0000000       0.0000000            CHD       
     7      (7,1,1)               0.0000000       0.0000000       0.0000000            CHD       
     8      (8,1,1)               0.0000000       0.0000000       0.0000000            CHD       
     9      (9,1,1)               0.0000000       0.0000000       0.0000000            CHD       
     10     (10,1,1)              0.0000000       0.0000000       0.0000000            CHD       
     11     (1,1,25)             -2.08333356E-02  6.9256857      -0.14428513           CHD       
     12     (2,1,25)             -2.08333356E-02  6.9256857      -0.14428513           CHD       
     13     (3,1,25)             -2.08333356E-02  6.9256857      -0.14428513           CHD       
     14     (4,1,25)             -2.08333356E-02  6.9256857      -0.14428513           CHD       
     15     (5,1,25)             -2.08333356E-02  6.9256857      -0.14428513           CHD       
     16     (6,1,25)             -2.08333356E-02  6.9256857      -0.14428513           CHD       
     17     (7,1,25)             -2.08333356E-02  6.9256857      -0.14428513           CHD       
     18     (8,1,25)             -2.08333356E-02  6.9256857      -0.14428513           CHD       
     19     (9,1,25)             -2.08333356E-02  6.9256857      -0.14428513           CHD       
     20     (10,1,25)            -2.08333356E-02  6.9256857      -0.14428513           CHD       
 ------------------------------------------------------------------------------------------------




 CNC PACKAGE (CNC) FLOW RATES   PERIOD      1   STEP        4
 -----------------------------------------------
   NUMBER   CELLID                    RATE      
 -----------------------------------------------
     1      (4,1,1)              -0.66130218    
     2      (5,1,1)               0.13500792    
     3      (6,1,1)               0.13898386    
     4      (7,1,1)               0.14112831    
     5      (8,1,1)               0.14224700    
     6      (9,1,1)               0.14279877    
     7      (10,1,1)              0.14302467    
 -----------------------------------------------



1
  CONCENTRATION IN LAYER   1 AT END OF TIME STEP   4 IN STRESS PERIOD    1
  ---------------------------------------------------------------------------

                1               2               3               4               5               6               7               8               9              10
               11              12              13              14              15              16              17              18              19              20
               21              22              23              24              25
 ................................................................................................................................................................
   1  14.10275466     10.32310637     7.737875440     7.070537213     6.948536521     6.929042980     6.926146247     6.925738310     6.925687483     6.925684554    
      6.925685481     6.925685854     6.925685764     6.925685686     6.925685654     6.925685640     6.925685632     6.925685627     6.925685628     6.925685634    
      6.925685645     6.925685661     6.925685680     6.925685702     6.925685717    
1
  CONCENTRATION IN LAYER   2 AT END OF TIME STEP   4 IN STRESS PERIOD    1
  ---------------------------------------------------------------------------

                1               2               3               4               5               6               7               8               9              10
               11              12              13              14              15              16              17              18              19              20
               21              22              23              24              25
 ................................................................................................................................................................
   1  13.12680247     9.879044134     7.661850590     7.061201277     6.947412801     6.928904375     6.926130025     6.925736701     6.925686967     6.925684428    
      6.925685431     6.925685843     6.925685755     6.925685677     6.925685643     6.925685627     6.925685618     6.925685613     6.925685615     6.925685622    
      6.925685635     6.925685653     6.925685674     6.925685701     6.925685716    
1
  CONCENTRATION IN LAYER   3 AT END OF TIME STEP   4 IN STRESS PERIOD    1
  ---------------------------------------------------------------------------

                1               2               3               4               5               6               7               8               9              10
               11              12              13              14              15              16              17              18              19              20
               21              22              23              24              25
 ................................................................................................................................................................
   1  10.68758866     9.058976942     7.533611714     7.045003862     6.945373150     6.928647029     6.926099967     6.925733381     6.925686089     6.925684258    
      6.925685370     6.925685824     6.925685742     6.925685663     6.925685626     6.925685607     6.925685595     6.925685591     6.925685594     6.925685603    
      6.925685619     6.925685641     6.925685666     6.925685697     6.925685716    
1
  CONCENTRATION IN LAYER   4 AT END OF TIME STEP   4 IN STRESS PERIOD    1
  ---------------------------------------------------------------------------

                1               2               3               4               5               6               7               8               9              10
               11              12              13              14              15              16              17              18              19              20
               21              22              23              24              25
 ................................................................................................................................................................
   1  6.899537640     8.117992022     7.388323683     7.025249080     6.942728551     6.928305058     6.926059921     6.925728523     6.925685079     6.925684109    
      6.925685328     6.925685806     6.925685730     6.925685650     6.925685610     6.925685588     6.925685574     6.925685570     6.925685574     6.925685585    
      6.925685603     6.925685628     6.925685657     6.925685694     6.925685715    
1
  CONCENTRATION IN LAYER   5 AT END OF TIME STEP   4 IN STRESS PERIOD    1
  ---------------------------------------------------------------------------

                1               2               3               4               5               6               7               8               9              10
               11              12              13              14              15              16              17              18              19              20
               21              22              23              24              25
 ................................................................................................................................................................
   1  6.899537640     7.570189040     7.241082385     7.003420224     6.939784741     6.927919836     6.926014221     6.925722831     6.925684164     6.925684012    
      6.925685315     6.925685795     6.925685723     6.925685643     6.925685600     6.925685575     6.925685561     6.925685556     6.925685560     6.925685572    
      6.925685592     6.925685619     6.925685650     6.925685690     6.925685714    
1
  CONCENTRATION IN LAYER   6 AT END OF TIME STEP   4 IN STRESS PERIOD    1
  ---------------------------------------------------------------------------

                1               2               3               4               5               6               7               8               9              10
               11              12              13              14              15              16              17              18              19              20
               21              22              23              24              25
 ................................................................................................................................................................
   1  6.899537640     7.264836667     7.125930655     6.982860901     6.936873325     6.927533108     6.925967400     6.925717060     6.925683544     6.925683966    
      6.925685332     6.925685794     6.925685722     6.925685641     6.925685597     6.925685571     6.925685556     6.925685551     6.925685555     6.925685567    
      6.925685587     6.925685615     6.925685647     6.925685688     6.925685713    
1
  CONCENTRATION IN LAYER   7 AT END OF TIME STEP   4 IN STRESS PERIOD    1
  ---------------------------------------------------------------------------

                1               2               3               4               5               6               7               8               9              10
               11              12              13              14              15              16              17              18              19              20
               21              22              23              24              25
 ................................................................................................................................................................
   1  6.899537640     7.100143317     7.047080542     6.965926700     6.934295186     6.927182756     6.925923819     6.925711825     6.925683290     6.925683999    
      6.925685358     6.925685801     6.925685725     6.925685643     6.925685600     6.925685574     6.925685559     6.925685554     6.925685557     6.925685569    
      6.925685589     6.925685616     6.925685647     6.925685687     6.925685713    
1
  CONCENTRATION IN LAYER   8 AT END OF TIME STEP   4 IN STRESS PERIOD    1
  ---------------------------------------------------------------------------

                1               2               3               4               5               6               7               8               9              10
               11              12              13              14              15              16              17              18              19              20
               21              22              23              24              25
 ................................................................................................................................................................
   1  6.899537640     7.014227611     6.997829727     6.953529168     6.932259660     6.926898644     6.925887232     6.925707606     6.925683362     6.925684096    
      6.925685383     6.925685815     6.925685733     6.925685649     6.925685607     6.925685583     6.925685569     6.925685563     6.925685566     6.925685577    
      6.925685595     6.925685621     6.925685650     6.925685688     6.925685713    
1
  CONCENTRATION IN LAYER   9 AT END OF TIME STEP   4 IN STRESS PERIOD    1
  ---------------------------------------------------------------------------

                1               2               3               4               5               6               7               8               9              10
               11              12              13              14              15              16              17              18              19              20
               21              22              23              24              25
 ................................................................................................................................................................
   1  6.899537640     6.971851841     6.970086359     6.945627786     6.930876205     6.926700786     6.925860611     6.925704758     6.925683624     6.925684205    
      6.925685404     6.925685832     6.925685742     6.925685657     6.925685618     6.925685596     6.925685583     6.925685577     6.925685579     6.925685588    
      6.925685605     6.925685628     6.925685655     6.925685690     6.925685713    
1
  CONCENTRATION IN LAYER  10 AT END OF TIME STEP   4 IN STRESS PERIOD    1
  ---------------------------------------------------------------------------

                1               2               3               4               5               6               7               8               9              10
               11              12              13              14              15              16              17              18              19              20
               21              22              23              24              25
 ................................................................................................................................................................
   1  6.899537640     6.954502661     6.957888832     6.941774745     6.930180715     6.926599893     6.925846460     6.925703372     6.925683859     6.925684273    
      6.925685421     6.925685849     6.925685753     6.925685667     6.925685630     6.925685611     6.925685599     6.925685593     6.925685594     6.925685601    
      6.925685616     6.925685637     6.925685661     6.925685692     6.925685713    

 CONCENTRATION WILL BE SAVED ON UNIT 6613 AT END OF TIME STEP    4, STRESS PERIOD    1


  MASS BUDGET FOR ENTIRE MODEL AT END OF TIME STEP    4, STRESS PERIOD   1
  ---------------------------------------------------------------------------------------------------

     CUMULATIVE MASS      M       RATES FOR THIS TIME STEP      M/T          PACKAGE NAME    
     ------------------                 ------------------------                     ----------------

           IN:                                      IN:
           ---                                      ---
     STORAGE-AQUEOUS =          22.8378       STORAGE-AQUEOUS =           1.0188     MST                              
                 CHD =          26.9202                   CHD =           0.6730     SSM_CHD                          
                 CNC =          39.5413                   CNC =           0.9711     CNC                              

            TOTAL IN =          89.2993              TOTAL IN =           2.6629

          OUT:                                     OUT:
          ----                                     ----
     STORAGE-AQUEOUS =          12.3669       STORAGE-AQUEOUS =           0.4309     MST                              
                 CHD =          57.7141                   CHD =           1.4429     SSM_CHD                          
                 CNC =          19.2183                   CNC =           0.7892     CNC                              

           TOTAL OUT =          89.2993             TOTAL OUT =           2.6629

            IN - OUT =       5.0501E-10              IN - OUT =      -1.0640E-12

 PERCENT DISCREPANCY =           0.00     PERCENT DISCREPANCY =          -0.00




         TIME SUMMARY AT END OF TIME STEP    4 IN STRESS PERIOD    1
                    SECONDS     MINUTES      HOURS       DAYS        YEARS
                    -----------------------------------------------------------
   TIME STEP LENGTH 8.64000E+05  14400.      240.00      10.000     2.73785E-02
 STRESS PERIOD TIME 3.45600E+06  57600.      960.00      40.000     0.10951    
         TOTAL TIME 3.45600E+06  57600.      960.00      40.000     0.10951    


end timestep


start timestep kper="1" kstp="5" mode="normal"

 UBDSV06 SAVING  SOURCE-SINK MIX IN MODEL CA               PACKAGE CA              CONNECTED TO MODEL CA               PACKAGE SSM              ON UNIT   6612 AT TIME STEP      5, STRESS PERIOD      1
 UBDSV06 SAVING              CNC IN MODEL CA               PACKAGE CA              CONNECTED TO MODEL CA               PACKAGE CNC              ON UNIT   6612 AT TIME STEP      5, STRESS PERIOD      1

 SSM PACKAGE (SSM) FLOW RATES   PERIOD      1   STEP        5
 ------------------------------------------------------------------------------------------------
   NUMBER   CELLID                   BOUND Q        SSM CONC          RATE         PACKAGE NAME  
 ------------------------------------------------------------------------------------------------
     1      (1,1,1)               2.08333321E-02  10.768065       0.22433466           CHD       
     2      (2,1,1)               2.08333321E-02  10.768065       0.22433466           CHD       
     3      (3,1,1)               2.08333321E-02  10.768065       0.22433466           CHD       
     4      (4,1,1)               0.0000000       0.0000000       0.0000000            CHD       
     5      (5,1,1)               0.0000000       0.0000000       0.0000000            CHD       
     6      (6,1,1)               0.0000000       0.0000000       0.0000000            CHD       
     7      (7,1,1)               0.0000000       0.0000000       0.0000000            CHD       
     8      (8,1,1)               0.0000000       0.0000000       0.0000000            CHD       
     9      (9,1,1)               0.0000000       0.0000000       0.0000000            CHD       
     10     (10,1,1)              0.0000000       0.0000000       0.0000000            CHD       
     11     (1,1,25)             -2.08333353E-02  6.9256857      -0.14428513           CHD       
[...]
               21              22              23              24              25
 ................................................................................................................................................................
   1  6.899537640     7.596157171     8.606093860     9.467551139     10.02003455     10.34366206     10.53368921     10.64441574     10.70759569     10.74403708    
      10.76698493     10.78394194     10.79813021     10.80965777     10.81743585     10.81654314     10.81183931     10.79907014     10.77410448     10.73432087    
      10.67449806     10.59315003     10.48938364     10.36499933     10.23238983    

 CONCENTRATION WILL BE SAVED ON UNIT 6613 AT END OF TIME STEP  199, STRESS PERIOD    1


  MASS BUDGET FOR ENTIRE MODEL AT END OF TIME STEP  199, STRESS PERIOD   1
  ---------------------------------------------------------------------------------------------------

     CUMULATIVE MASS      M       RATES FOR THIS TIME STEP      M/T          PACKAGE NAME    
     ------------------                 ------------------------                     ----------------

           IN:                                      IN:
           ---                                      ---
     STORAGE-AQUEOUS =        1849.9421       STORAGE-AQUEOUS =           0.8102     MST                              
                 CHD =        1339.2780                   CHD =           0.6730     SSM_CHD                          
                 CNC =        1791.8352                   CNC =           0.9348     CNC                              

            TOTAL IN =        4981.0553              TOTAL IN =           2.4180

          OUT:                                     OUT:
          ----                                     ----
     STORAGE-AQUEOUS =        1255.0178       STORAGE-AQUEOUS =           0.1223     MST                              
                 CHD =        3202.9680                   CHD =           2.1317     SSM_CHD                          
                 CNC =         523.0695                   CNC =           0.1640     CNC                              

           TOTAL OUT =        4981.0553             TOTAL OUT =           2.4180

            IN - OUT =      -7.5714E-07              IN - OUT =      -1.1128E-11

 PERCENT DISCREPANCY =          -0.00     PERCENT DISCREPANCY =          -0.00




         TIME SUMMARY AT END OF TIME STEP  199 IN STRESS PERIOD    1
                    SECONDS     MINUTES      HOURS       DAYS        YEARS
                    -----------------------------------------------------------
   TIME STEP LENGTH 8.64000E+05  14400.      240.00      10.000     2.73785E-02
 STRESS PERIOD TIME 1.71936E+08 2.86560E+06  47760.      1990.0      5.4483    
         TOTAL TIME 1.71936E+08 2.86560E+06  47760.      1990.0      5.4483    


end timestep


start timestep kper="1" kstp="200" mode="normal"

 UBDSV06 SAVING  SOURCE-SINK MIX IN MODEL CA               PACKAGE CA              CONNECTED TO MODEL CA               PACKAGE SSM              ON UNIT   6612 AT TIME STEP    200, STRESS PERIOD      1
 UBDSV06 SAVING              CNC IN MODEL CA               PACKAGE CA              CONNECTED TO MODEL CA               PACKAGE CNC              ON UNIT   6612 AT TIME STEP    200, STRESS PERIOD      1

 SSM PACKAGE (SSM) FLOW RATES   PERIOD      1   STEP      200
 ------------------------------------------------------------------------------------------------
   NUMBER   CELLID                   BOUND Q        SSM CONC          RATE         PACKAGE NAME  
 ------------------------------------------------------------------------------------------------
     1      (1,1,1)               2.08333330E-02  10.768065       0.22433467           CHD       
     2      (2,1,1)               2.08333330E-02  10.768065       0.22433467           CHD       
     3      (3,1,1)               2.08333330E-02  10.768065       0.22433467           CHD       
     4      (4,1,1)               0.0000000       0.0000000       0.0000000            CHD       
     5      (5,1,1)               0.0000000       0.0000000       0.0000000            CHD       
     6      (6,1,1)               0.0000000       0.0000000       0.0000000            CHD       
     7      (7,1,1)               0.0000000       0.0000000       0.0000000            CHD       
     8      (8,1,1)               0.0000000       0.0000000       0.0000000            CHD       
     9      (9,1,1)               0.0000000       0.0000000       0.0000000            CHD       
     10     (10,1,1)              0.0000000       0.0000000       0.0000000            CHD       
     11     (1,1,25)             -2.08333337E-02  10.254323      -0.21363173           CHD       
     12     (2,1,25)             -2.08333337E-02  10.254323      -0.21363173           CHD       
     13     (3,1,25)             -2.08333337E-02  10.254323      -0.21363173           CHD       
     14     (4,1,25)             -2.08333337E-02  10.254323      -0.21363173           CHD       
     15     (5,1,25)             -2.08333337E-02  10.254323      -0.21363173           CHD       
     16     (6,1,25)             -2.08333337E-02  10.254323      -0.21363173           CHD       
     17     (7,1,25)             -2.08333337E-02  10.254323      -0.21363173           CHD       
     18     (8,1,25)             -2.08333337E-02  10.254323      -0.21363173           CHD       
     19     (9,1,25)             -2.08333337E-02  10.254323      -0.21363173           CHD       
     20     (10,1,25)            -2.08333337E-02  10.254323      -0.21363173           CHD       
 ------------------------------------------------------------------------------------------------




 CNC PACKAGE (CNC) FLOW RATES   PERIOD      1   STEP      200
 -----------------------------------------------
   NUMBER   CELLID                    RATE      
 -----------------------------------------------
     1      (4,1,1)              -3.01139328E-02
     2      (5,1,1)               0.13437303    
     3      (6,1,1)               0.13373771    
     4      (7,1,1)               0.13175480    
     5      (8,1,1)               0.13265543    
     6      (9,1,1)               0.13391416    
     7      (10,1,1)              0.13465234    
 -----------------------------------------------



1
  CONCENTRATION IN LAYER   1 AT END OF TIME STEP 200 IN STRESS PERIOD    1
  ---------------------------------------------------------------------------

                1               2               3               4               5               6               7               8               9              10
               11              12              13              14              15              16              17              18              19              20
               21              22              23              24              25
 ................................................................................................................................................................
   1  8.375195127     8.050360292     8.461500112     9.804811859     11.00115741     10.98495019     10.88631671     10.82255565     10.79657588     10.78803946    
      10.78988522     10.79466563     10.80213213     10.81067743     10.81762756     10.81685324     10.81258158     10.80075221     10.77721863     10.73972205    
      10.68259346     10.60434420     10.50403037     10.38333334     10.25432287    
1
  CONCENTRATION IN LAYER   2 AT END OF TIME STEP 200 IN STRESS PERIOD    1
  ---------------------------------------------------------------------------

                1               2               3               4               5               6               7               8               9              10
               11              12              13              14              15              16              17              18              19              20
               21              22              23              24              25
 ................................................................................................................................................................
   1  8.155669746     7.968769349     8.463728451     9.932145240     10.96426347     10.94971558     10.86657475     10.81320067     10.79203464     10.78590674    
      10.78855290     10.79403351     10.80185561     10.81055351     10.81757468     10.81680997     10.81255440     10.80073785     10.77721174     10.73971983    
      10.68259286     10.60434410     10.50403038     10.38333336     10.25432287    
1
  CONCENTRATION IN LAYER   3 AT END OF TIME STEP 200 IN STRESS PERIOD    1
  ---------------------------------------------------------------------------

                1               2               3               4               5               6               7               8               9              10
               11              12              13              14              15              16              17              18              19              20
               21              22              23              24              25
 ................................................................................................................................................................
   1  7.686119327     7.822738054     8.477675656     10.17481381     10.89081285     10.88386679     10.82993797     10.79556378     10.78343862     10.78176194    
      10.78608659     10.79284902     10.80132742     10.81031586     10.81747355     10.81672741     10.81250265     10.80071055     10.77719865     10.73971560    
      10.68259173     10.60434390     10.50403040     10.38333338     10.25432289    
1
  CONCENTRATION IN LAYER   4 AT END OF TIME STEP 200 IN STRESS PERIOD    1
  ---------------------------------------------------------------------------

                1               2               3               4               5               6               7               8               9              10
               11              12              13              14              15              16              17              18              19              20
               21              22              23              24              25
 ................................................................................................................................................................
   1  6.899537640     7.666240948     8.511323601     10.33744040     10.77441003     10.79734543     10.78131166     10.77160972     10.77170644     10.77580654    
      10.78287134     10.79125377     10.80059752     10.80998539     10.81733323     10.81661321     10.81243135     10.80067303     10.77718069     10.73970977    
      10.68259016     10.60434364     10.50403043     10.38333342     10.25432291    
1
  CONCENTRATION IN LAYER   5 AT END OF TIME STEP 200 IN STRESS PERIOD    1
  ---------------------------------------------------------------------------

                1               2               3               4               5               6               7               8               9              10
               11              12              13              14              15              16              17              18              19              20
               21              22              23              24              25
 ................................................................................................................................................................
   1  6.899537640     7.618948966     8.570379121     10.25494096     10.62501319     10.69890056     10.72655175     10.74396258     10.75774145     10.76884332    
      10.77920321     10.78940687     10.79973876     10.80959356     10.81716677     10.81647816     10.81234742     10.80062899     10.77715964     10.73970291    
      10.68258831     10.60434332     10.50403046     10.38333346     10.25432293    
1
  CONCENTRATION IN LAYER   6 AT END OF TIME STEP 200 IN STRESS PERIOD    1
  ---------------------------------------------------------------------------

                1               2               3               4               5               6               7               8               9              10
               11              12              13              14              15              16              17              18              19              20
               21              22              23              24              25
 ................................................................................................................................................................
   1  6.899537640     7.667741745     8.685563940     10.07706924     10.46203471     10.59829055     10.67103812     10.71528902     10.74316355     10.76149597    
      10.77538503     10.78748025     10.79883956     10.80917975     10.81699014     10.81633522     10.81225903     10.80058276     10.77713758     10.73969568    
      10.68258636     10.60434300     10.50403050     10.38333351     10.25432294    
1
  CONCENTRATION IN LAYER   7 AT END OF TIME STEP 200 IN STRESS PERIOD    1
  ---------------------------------------------------------------------------

                1               2               3               4               5               6               7               8               9              10
               11              12              13              14              15              16              17              18              19              20
               21              22              23              24              25
 ................................................................................................................................................................
   1  6.899537640     7.820029247     8.885047523     9.879465459     10.30439689     10.50483430     10.61963670     10.68836595     10.72937024     10.75450212    
      10.77176829     10.78564877     10.79799418     10.80878666     10.81682074     10.81619838     10.81217483     10.80053886     10.77711668     10.73968881    
      10.68258450     10.60434268     10.50403053     10.38333355     10.25432296    
1
  CONCENTRATION IN LAYER   8 AT END OF TIME STEP 200 IN STRESS PERIOD    1
  ---------------------------------------------------------------------------

                1               2               3               4               5               6               7               8               9              10
               11              12              13              14              15              16              17              18              19              20
               21              22              23              24              25
 ................................................................................................................................................................
   1  6.899537640     7.750860520     8.799817724     9.690882169     10.16977137     10.42675539     10.57676215     10.66570023     10.71768375     10.74855361    
      10.76870134     10.78408116     10.79728549     10.80845394     10.81667561     10.81608130     10.81210309     10.80050157     10.77709896     10.73968295    
      10.68258291     10.60434242     10.50403056     10.38333359     10.25432298    
1
  CONCENTRATION IN LAYER   9 AT END OF TIME STEP 200 IN STRESS PERIOD    1
  ---------------------------------------------------------------------------

                1               2               3               4               5               6               7               8               9              10
               11              12              13              14              15              16              17              18              19              20
               21              22              23              24              25
 ................................................................................................................................................................
   1  6.899537640     7.654190140     8.680762334     9.546950059     10.07201538     10.37071668     10.54602725     10.64935501     10.70921769     10.74423355    
      10.76647765     10.78293610     10.79677612     10.80821336     10.81656961     10.81599584     10.81205091     10.80047451     10.77708612     10.73967869    
      10.68258176     10.60434223     10.50403059     10.38333361     10.25432300    
1
  CONCENTRATION IN LAYER  10 AT END OF TIME STEP 200 IN STRESS PERIOD    1
  ---------------------------------------------------------------------------

                1               2               3               4               5               6               7               8               9              10
               11              12              13              14              15              16              17              18              19              20
               21              22              23              24              25
 ................................................................................................................................................................
   1  6.899537640     7.597498131     8.606884271     9.469842326     10.02072498     10.34146264     10.52999427     10.64080032     10.70477473     10.74196314    
      10.76530995     10.78233214     10.79651002     10.80808725     10.81651368     10.81595078     10.81202345     10.80046030     10.77707938     10.73967645    
      10.68258115     10.60434213     10.50403060     10.38333363     10.25432301    

 CONCENTRATION WILL BE SAVED ON UNIT 6613 AT END OF TIME STEP  200, STRESS PERIOD    1


  MASS BUDGET FOR ENTIRE MODEL AT END OF TIME STEP  200, STRESS PERIOD   1
  ---------------------------------------------------------------------------------------------------

     CUMULATIVE MASS      M       RATES FOR THIS TIME STEP      M/T          PACKAGE NAME    
     ------------------                 ------------------------                     ----------------

           IN:                                      IN:
           ---                                      ---
     STORAGE-AQUEOUS =        1858.0406       STORAGE-AQUEOUS =           0.8099     MST                              
                 CHD =        1346.0080                   CHD =           0.6730     SSM_CHD                          
                 CNC =        1801.1837                   CNC =           0.9348     CNC                              

            TOTAL IN =        5005.2323              TOTAL IN =           2.4177

          OUT:                                     OUT:
          ----                                     ----
     STORAGE-AQUEOUS =        1256.1930       STORAGE-AQUEOUS =           0.1175     MST                              
                 CHD =        3224.3311                   CHD =           2.1363     SSM_CHD                          
                 CNC =         524.7082                   CNC =           0.1639     CNC                              

           TOTAL OUT =        5005.2323             TOTAL OUT =           2.4177

            IN - OUT =      -7.5727E-07              IN - OUT =      -1.2554E-11

 PERCENT DISCREPANCY =          -0.00     PERCENT DISCREPANCY =          -0.00




         TIME SUMMARY AT END OF TIME STEP  200 IN STRESS PERIOD    1
                    SECONDS     MINUTES      HOURS       DAYS        YEARS
                    -----------------------------------------------------------
   TIME STEP LENGTH 8.64000E+05  14400.      240.00      10.000     2.73785E-02
 STRESS PERIOD TIME 1.72800E+08 2.88000E+06  48000.      2000.0      5.4757    
         TOTAL TIME 1.72800E+08 2.88000E+06  48000.      2000.0      5.4757    


end timestep

