                                   MODFLOW 6
                U.S. GEOLOGICAL SURVEY MODULAR HYDROLOGIC MODEL
                       GROUNDWATER TRANSPORT MODEL (GWT)
                VERSION 6.5.0.dev0+prt (preliminary) 10/07/2023
                               ***DEVELOP MODE***

   MODFLOW 6 compiled Oct 07 2023 02:19:02 with Intel(R) Fortran Intel(R) 64
   Compiler Classic for applications running on Intel(R) 64, Version 2021.7.0
                             Build 20220726_000000

This software is preliminary or provisional and is subject to 
revision. It is being provided to meet the need for timely best 
science. The software has not received final approval by the U.S. 
Geological Survey (USGS). No warranty, expressed or implied, is made 
by the USGS or the U.S. Government as to the functionality of the 
software and related material nor shall the fact of release 
constitute any such warranty. The software is provided on the 
condition that neither the USGS nor the U.S. Government shall be held 
liable for any damages resulting from the authorized or unauthorized 
use of the software.


As a work of the United States Government, this USGS product is 
in the public domain within the United States. You can copy, 
modify, distribute, and perform the work, even for commercial 
purposes, all without asking permission. Additionally, USGS 
waives copyright and related rights in the work worldwide 
through CC0 1.0 Universal Public Domain Dedication 
(https://creativecommons.org/publicdomain/zero/1.0/).

The following GNU Lesser General Public License (LGPL) libraries
are used in this USGS product:

    SPARSKIT version 2.0
      ilut, luson, and qsplit 
      (https://www-users.cse.umn.edu/~saad/software/SPARSKIT/)

    RCM - Reverse Cuthill McKee Ordering
      (https://people.math.sc.edu/Burkardt/f_src/rcm/rcm.html)

    BLAS - Basic Linear Algebra Subprograms Level 1
      (https://people.math.sc.edu/Burkardt/f_src/blas1_d/blas1_d.html)

    SPARSEKIT - Sparse Matrix Utility Package
      amux, dperm, dvperm, rperm, and cperm
      (https://people.sc.fsu.edu/~jburkardt/f77_src/sparsekit/sparsekit.html)

The following BSD-3 License libraries are used in this USGS product:

    Modern Fortran DAG Library
      Copyright (c) 2018, Jacob Williams
      All rights reserved.
      (https://github.com/jacobwilliams/daglib)

MODFLOW 6 compiler options: /Isrc\libmf6core.a.p /Isrc /I..\src
/Isrc\libmf6_external.a.p /MTd /nologo /warn:general /warn:truncated_source
/stand:f08 /Zi /traceback /O2 /fpe:0 /heap-arrays:0 /traceback /fpp
/Qdiag-disable:7416 /Qdiag-disable:7025 /Qdiag-disable:5268
/Fdsrc\libmf6core.a.p\Utilities_compilerversion.F90.pdb
/module:src\libmf6core.a.p
/Fosrc/libmf6core.a.p/Utilities_compilerversion.F90.obj /c

System command used to initiate simulation:
c:\Users\portega\anaconda3\envs\mf6rtm\python.exe -m ipykernel_launcher --f=c:\Users\portega\AppData\Roaming\jupyter\runtime\kernel-v2-17404w7nug58txkWt.json

MODFLOW was compiled using uniform precision.

Real Variables
  KIND: 8
  TINY (smallest non-zero value):    2.225074-308
  HUGE (largest value):    1.797693+308
  PRECISION: 15
  SIZE IN BITS: 64

Integer Variables
  KIND: 4
  HUGE (largest value): 2147483647
  SIZE IN BITS: 32

Long Integer Variables
  KIND: 8
  HUGE (largest value): 9223372036854775807
  SIZE IN BITS: 64

Logical Variables
  KIND: 4
  SIZE IN BITS: 32
 
 NAMEFILE OPTIONS:
 END NAMEFILE OPTIONS:

 DIS -- STRUCTURED GRID DISCRETIZATION PACKAGE, VERSION 2 : 3/27/2014 - INPUT READ FROM MEMPATH: __INPUT__/CHARGE/DIS                              


 DSP-- DISPERSION PACKAGE, VERSION 1, 1/24/2018 INPUT READ FROM MEMPATH: __INPUT__/CHARGE/DSP                              


 Setting Discretization Options
    Model length unit [0=UND, 1=FEET, 2=METERS, 3=CENTIMETERS] set as 2
 End Setting Discretization Options

 Setting Discretization Dimensions
    NLAY = 10
    NROW = 1
    NCOL = 25
 End Setting Discretization Dimensions

 Setting Discretization Griddata
    DELR set from input file
    DELC set from input file
    TOP set from input file
    BOTM set from input file
    IDOMAIN set from input file
 End Setting Discretization Griddata


 FMI -- FLOW MODEL INTERFACE,' VERSION 2, 8/17/2023
  FLOWS PROVIDED BY A GWF MODEL IN THIS SIMULATION

 ADV-- ADVECTION PACKAGE, VERSION 1, 8/25/2017 INPUT READ FROM UNIT 1186


 # File generated by Flopy version 3.5.0.dev0 on 07/12/2024 at 15:45:50.
 PROCESSING ADVECTION OPTIONS
    ADVECTION WEIGHTING SCHEME HAS BEEN SET TO: TVD
 END OF ADVECTION OPTIONS
 Setting DSP Options
    XT3D formulation [0=INACTIVE, 1=ACTIVE, 3=ACTIVE RHS] set to: 0
 End Setting DSP Options

 Setting DSP Griddata
    ALH set from input file
    ATH1 set from input file
    ATV set from input file
 End Setting DSP Griddata


 CNC   -- CNC PACKAGE, VERSION 8, 2/22/2014 INPUT READ FROM UNIT 1220
 # File generated by Flopy version 3.5.0.dev0 on 07/12/2024 at 15:45:50.

 PROCESSING CNC OPTIONS
    CNC FLOWS WILL BE PRINTED TO LISTING FILE.
    FLOWS WILL BE SAVED TO BUDGET FILE SPECIFIED IN OUTPUT CONTROL
 END OF CNC OPTIONS

 PROCESSING CNC DIMENSIONS
    MAXBOUND =       7
 END OF CNC DIMENSIONS

 IC -- INITIAL CONDITIONS PACKAGE, VERSION 8, 3/28/2015 INPUT READ FROM UNIT 1184
 # File generated by Flopy version 3.5.0.dev0 on 07/12/2024 at 15:45:50.
 PROCESSING GRIDDATA

 OPENED Charge.ic_strt_layer1.txt
 FILE TYPE:OPEN/CLOSE   UNIT 1966   STATUS:OLD                 
 FORMAT:FORMATTED              ACCESS:SEQUENTIAL          
 ACTION:READ                


 OPENED Charge.ic_strt_layer2.txt
 FILE TYPE:OPEN/CLOSE   UNIT 1967   STATUS:OLD                 
 FORMAT:FORMATTED              ACCESS:SEQUENTIAL          
 ACTION:READ                


 OPENED Charge.ic_strt_layer3.txt
 FILE TYPE:OPEN/CLOSE   UNIT 1968   STATUS:OLD                 
 FORMAT:FORMATTED              ACCESS:SEQUENTIAL          
 ACTION:READ                


 OPENED Charge.ic_strt_layer4.txt
 FILE TYPE:OPEN/CLOSE   UNIT 1969   STATUS:OLD                 
 FORMAT:FORMATTED              ACCESS:SEQUENTIAL          
 ACTION:READ                


 OPENED Charge.ic_strt_layer5.txt
 FILE TYPE:OPEN/CLOSE   UNIT 1970   STATUS:OLD                 
 FORMAT:FORMATTED              ACCESS:SEQUENTIAL          
 ACTION:READ                


 OPENED Charge.ic_strt_layer6.txt
 FILE TYPE:OPEN/CLOSE   UNIT 1971   STATUS:OLD                 
 FORMAT:FORMATTED              ACCESS:SEQUENTIAL          
 ACTION:READ                


 OPENED Charge.ic_strt_layer7.txt
 FILE TYPE:OPEN/CLOSE   UNIT 1972   STATUS:OLD                 
 FORMAT:FORMATTED              ACCESS:SEQUENTIAL          
 ACTION:READ                


 OPENED Charge.ic_strt_layer8.txt
 FILE TYPE:OPEN/CLOSE   UNIT 1973   STATUS:OLD                 
 FORMAT:FORMATTED              ACCESS:SEQUENTIAL          
 ACTION:READ                


 OPENED Charge.ic_strt_layer9.txt
 FILE TYPE:OPEN/CLOSE   UNIT 1974   STATUS:OLD                 
 FORMAT:FORMATTED              ACCESS:SEQUENTIAL          
 ACTION:READ                


 OPENED Charge.ic_strt_layer10.txt
 FILE TYPE:OPEN/CLOSE   UNIT 1975   STATUS:OLD                 
 FORMAT:FORMATTED              ACCESS:SEQUENTIAL          
 ACTION:READ                

 END PROCESSING GRIDDATA

 MST -- MOBILE STORAGE AND TRANSFER PACKAGE, VERSION 1, 7/29/2020 INPUT READ FROM UNIT 1185


 # File generated by Flopy version 3.5.0.dev0 on 07/12/2024 at 15:45:50.
 PROCESSING MOBILE STORAGE AND TRANSFER OPTIONS
 END OF MOBILE STORAGE AND TRANSFER OPTIONS
 PROCESSING GRIDDATA

 OPENED Charge.mst_porosity.txt
 FILE TYPE:OPEN/CLOSE   UNIT 1976   STATUS:OLD                 
 FORMAT:FORMATTED              ACCESS:SEQUENTIAL          
 ACTION:READ                

 END PROCESSING GRIDDATA

 SSM -- SOURCE-SINK MIXING PACKAGE, VERSION 1, 8/25/2017 INPUT READ FROM UNIT 1218


 # File generated by Flopy version 3.5.0.dev0 on 07/12/2024 at 15:45:50.
 PROCESSING SSM OPTIONS
    SSM FLOW INFORMATION WILL BE PRINTED TO LISTING FILE WHENEVER ICBCFL IS NOT ZERO.
    CELL-BY-CELL FLOW INFORMATION WILL BE SAVED TO BINARY FILE WHENEVER ICBCFL IS NOT ZERO.
 END OF SSM OPTIONS

 OPENED Charge.ssm_sources.txt
 FILE TYPE:OPEN/CLOSE   UNIT 1977   STATUS:OLD                 
 FORMAT:FORMATTED              ACCESS:SEQUENTIAL          
 ACTION:READ                

 PROCESSING SOURCES
 AUX SOURCE DETECTED.
    USING AUX COLUMN 3 IN PACKAGE CHD
 END PROCESSING SOURCES
 OPTIONAL FILEINPUT BLOCK NOT FOUND.  CONTINUING.
      THE LAST TIME STEP WILL BE PRINTED
      THE LAST TIME STEP WILL BE PRINTED
 # File generated by Flopy version 3.5.0.dev0 on 07/12/2024 at 15:45:50.

 PROCESSING OC OPTIONS

    BUDGET INFORMATION WILL BE WRITTEN TO:
      UNIT NUMBER: 1978
      FILE NAME: Charge.cbb

 OPENED Charge.cbb
 FILE TYPE:DATA(BINARY)   UNIT 1978   STATUS:REPLACE             
 FORMAT:UNFORMATTED            ACCESS:STREAM              
 ACTION:READWRITE           

    CONCENTRATION INFORMATION WILL BE WRITTEN TO:
      UNIT NUMBER: 1979
      FILE NAME: Charge.ucn

 OPENED Charge.ucn
 FILE TYPE:DATA(BINARY)   UNIT 1979   STATUS:REPLACE             
 FORMAT:UNFORMATTED            ACCESS:STREAM              
 ACTION:READWRITE           

 END OF OC OPTIONS

start timestep kper="1" kstp="1" mode="normal"


 BEGIN READING OUTPUT CONTROL FOR STRESS PERIOD 1
      ALL TIME STEPS WILL BE SAVED
      ALL TIME STEPS WILL BE SAVED
      ALL TIME STEPS WILL BE PRINTED
      ALL TIME STEPS WILL BE PRINTED

 END READING OUTPUT CONTROL FOR STRESS PERIOD 1

 OPENED Charge.cnc_stress_period_data_1.txt
 FILE TYPE:OPEN/CLOSE   UNIT 2136   STATUS:OLD                 
 FORMAT:FORMATTED              ACCESS:SEQUENTIAL          
 ACTION:READ                

 UBDSV06 SAVING  SOURCE-SINK MIX IN MODEL CHARGE           PACKAGE CHARGE          CONNECTED TO MODEL CHARGE           PACKAGE SSM              ON UNIT   1978 AT TIME STEP      1, STRESS PERIOD      1
 UBDSV06 SAVING              CNC IN MODEL CHARGE           PACKAGE CHARGE          CONNECTED TO MODEL CHARGE           PACKAGE CNC              ON UNIT   1978 AT TIME STEP      1, STRESS PERIOD      1

 SSM PACKAGE (SSM) FLOW RATES   PERIOD      1   STEP        1
 ------------------------------------------------------------------------------------------------
   NUMBER   CELLID                   BOUND Q        SSM CONC          RATE         PACKAGE NAME  
 ------------------------------------------------------------------------------------------------
     1      (1,1,1)               2.08333361E-02 -7.00026400E-02 -1.45838853E-03       CHD       
     2      (2,1,1)               2.08333361E-02 -7.00026400E-02 -1.45838853E-03       CHD       
     3      (3,1,1)               2.08333361E-02 -7.00026400E-02 -1.45838853E-03       CHD       
     4      (4,1,1)               0.0000000       0.0000000       0.0000000            CHD       
     5      (5,1,1)               0.0000000       0.0000000       0.0000000            CHD       
     6      (6,1,1)               0.0000000       0.0000000       0.0000000            CHD       
     7      (7,1,1)               0.0000000       0.0000000       0.0000000            CHD       
     8      (8,1,1)               0.0000000       0.0000000       0.0000000            CHD       
     9      (9,1,1)               0.0000000       0.0000000       0.0000000            CHD       
     10     (10,1,1)              0.0000000       0.0000000       0.0000000            CHD       
     11     (1,1,25)             -2.08333402E-02  4.54226200E-02 -9.46304896E-04       CHD       
     12     (2,1,25)             -2.08333402E-02  4.54226200E-02 -9.46304896E-04       CHD       
     13     (3,1,25)             -2.08333402E-02  4.54226200E-02 -9.46304897E-04       CHD       
     14     (4,1,25)             -2.08333403E-02  4.54226200E-02 -9.46304898E-04       CHD       
     15     (5,1,25)             -2.08333403E-02  4.54226200E-02 -9.46304898E-04       CHD       
     16     (6,1,25)             -2.08333403E-02  4.54226200E-02 -9.46304899E-04       CHD       
     17     (7,1,25)             -2.08333403E-02  4.54226200E-02 -9.46304899E-04       CHD       
     18     (8,1,25)             -2.08333403E-02  4.54226200E-02 -9.46304899E-04       CHD       
     19     (9,1,25)             -2.08333403E-02  4.54226200E-02 -9.46304899E-04       CHD       
     20     (10,1,25)            -2.08333403E-02  4.54226200E-02 -9.46304899E-04       CHD       
 ------------------------------------------------------------------------------------------------




 CNC PACKAGE (CNC) FLOW RATES   PERIOD      1   STEP        1
 -----------------------------------------------
   NUMBER   CELLID                    RATE      
 -----------------------------------------------
     1      (4,1,1)               2.64775286E-03
     2      (5,1,1)               9.49148184E-04
     3      (6,1,1)               9.47457176E-04
     4      (7,1,1)               9.46773660E-04
     5      (8,1,1)               9.46497555E-04
     6      (9,1,1)               9.46387926E-04
     7      (10,1,1)              9.46349646E-04
 -----------------------------------------------



1
  CONCENTRATION IN LAYER   1 AT END OF TIME STEP   1 IN STRESS PERIOD    1
  ---------------------------------------------------------------------------

                1               2               3               4               5               6               7               8               9              10
               11              12              13              14              15              16              17              18              19              20
               21              22              23              24              25
 ................................................................................................................................................................
   1  *************** *************** *************** *************** *************** *************** *************** *************** *************** ***************
      *************** *************** *************** *************** *************** *************** *************** *************** *************** ***************
      *************** *************** *************** *************** ***************
1
  CONCENTRATION IN LAYER   2 AT END OF TIME STEP   1 IN STRESS PERIOD    1
  ---------------------------------------------------------------------------

                1               2               3               4               5               6               7               8               9              10
               11              12              13              14              15              16              17              18              19              20
               21              22              23              24              25
 ................................................................................................................................................................
   1  *************** *************** *************** *************** *************** *************** *************** *************** *************** ***************
      *************** *************** *************** *************** *************** *************** *************** *************** *************** ***************
      *************** *************** *************** *************** ***************
1
  CONCENTRATION IN LAYER   3 AT END OF TIME STEP   1 IN STRESS PERIOD    1
  ---------------------------------------------------------------------------

                1               2               3               4               5               6               7               8               9              10
               11              12              13              14              15              16              17              18              19              20
               21              22              23              24              25
 ................................................................................................................................................................
   1  *************** *************** *************** *************** *************** *************** *************** *************** *************** ***************
      *************** *************** *************** *************** *************** *************** *************** *************** *************** ***************
      *************** *************** *************** *************** ***************
1
  CONCENTRATION IN LAYER   4 AT END OF TIME STEP   1 IN STRESS PERIOD    1
  ---------------------------------------------------------------------------

                1               2               3               4               5               6               7               8               9              10
               11              12              13              14              15              16              17              18              19              20
               21              22              23              24              25
 ................................................................................................................................................................
   1  *************** *************** *************** *************** *************** *************** *************** *************** *************** ***************
      *************** *************** *************** *************** *************** *************** *************** *************** *************** ***************
      *************** *************** *************** *************** ***************
1
  CONCENTRATION IN LAYER   5 AT END OF TIME STEP   1 IN STRESS PERIOD    1
  ---------------------------------------------------------------------------

                1               2               3               4               5               6               7               8               9              10
               11              12              13              14              15              16              17              18              19              20
               21              22              23              24              25
 ................................................................................................................................................................
   1  *************** *************** *************** *************** *************** *************** *************** *************** *************** ***************
      *************** *************** *************** *************** *************** *************** *************** *************** *************** ***************
      *************** *************** *************** *************** ***************
1
  CONCENTRATION IN LAYER   6 AT END OF TIME STEP   1 IN STRESS PERIOD    1
  ---------------------------------------------------------------------------

                1               2               3               4               5               6               7               8               9              10
               11              12              13              14              15              16              17              18              19              20
               21              22              23              24              25
 ................................................................................................................................................................
   1  *************** *************** *************** *************** *************** *************** *************** *************** *************** ***************
      *************** *************** *************** *************** *************** *************** *************** *************** *************** ***************
      *************** *************** *************** *************** ***************
1
  CONCENTRATION IN LAYER   7 AT END OF TIME STEP   1 IN STRESS PERIOD    1
  ---------------------------------------------------------------------------

                1               2               3               4               5               6               7               8               9              10
               11              12              13              14              15              16              17              18              19              20
               21              22              23              24              25
 ................................................................................................................................................................
   1  *************** *************** *************** *************** *************** *************** *************** *************** *************** ***************
      *************** *************** *************** *************** *************** *************** *************** *************** *************** ***************
      *************** *************** *************** *************** ***************
1
  CONCENTRATION IN LAYER   8 AT END OF TIME STEP   1 IN STRESS PERIOD    1
  ---------------------------------------------------------------------------

                1               2               3               4               5               6               7               8               9              10
               11              12              13              14              15              16              17              18              19              20
               21              22              23              24              25
 ................................................................................................................................................................
   1  *************** *************** *************** *************** *************** *************** *************** *************** *************** ***************
      *************** *************** *************** *************** *************** *************** *************** *************** *************** ***************
      *************** *************** *************** *************** ***************
1
  CONCENTRATION IN LAYER   9 AT END OF TIME STEP   1 IN STRESS PERIOD    1
  ---------------------------------------------------------------------------

                1               2               3               4               5               6               7               8               9              10
               11              12              13              14              15              16              17              18              19              20
               21              22              23              24              25
 ................................................................................................................................................................
   1  *************** *************** *************** *************** *************** *************** *************** *************** *************** ***************
      *************** *************** *************** *************** *************** *************** *************** *************** *************** ***************
      *************** *************** *************** *************** ***************
1
  CONCENTRATION IN LAYER  10 AT END OF TIME STEP   1 IN STRESS PERIOD    1
  ---------------------------------------------------------------------------

                1               2               3               4               5               6               7               8               9              10
               11              12              13              14              15              16              17              18              19              20
               21              22              23              24              25
 ................................................................................................................................................................
   1  *************** *************** *************** *************** *************** *************** *************** *************** *************** ***************
      *************** *************** *************** *************** *************** *************** *************** *************** *************** ***************
      *************** *************** *************** *************** ***************

 CONCENTRATION WILL BE SAVED ON UNIT 1979 AT END OF TIME STEP    1, STRESS PERIOD    1


  MASS BUDGET FOR ENTIRE MODEL AT END OF TIME STEP    1, STRESS PERIOD   1
  ---------------------------------------------------------------------------------------------------

     CUMULATIVE MASS      M       RATES FOR THIS TIME STEP      M/T          PACKAGE NAME    
     ------------------                 ------------------------                     ----------------

           IN:                                      IN:
           ---                                      ---
     STORAGE-AQUEOUS =       5.5078E-02       STORAGE-AQUEOUS =       5.5078E-03     MST                              
                 CHD =           0.0000                   CHD =           0.0000     SSM_CHD                          
                 CNC =       8.3304E-02                   CNC =       8.3304E-03     CNC                              

            TOTAL IN =           0.1384              TOTAL IN =       1.3838E-02

          OUT:                                     OUT:
          ----                                     ----
     STORAGE-AQUEOUS =       2.0172E-08       STORAGE-AQUEOUS =       2.0172E-09     MST                              
                 CHD =           0.1384                   CHD =       1.3838E-02     SSM_CHD                          
                 CNC =           0.0000                   CNC =           0.0000     CNC                              

           TOTAL OUT =           0.1384             TOTAL OUT =       1.3838E-02

            IN - OUT =      -3.0075E-09              IN - OUT =      -3.0075E-10

 PERCENT DISCREPANCY =          -0.00     PERCENT DISCREPANCY =          -0.00




         TIME SUMMARY AT END OF TIME STEP    1 IN STRESS PERIOD    1
                    SECONDS     MINUTES      HOURS       DAYS        YEARS
                    -----------------------------------------------------------
   TIME STEP LENGTH 8.64000E+05  14400.      240.00      10.000     2.73785E-02
 STRESS PERIOD TIME 8.64000E+05  14400.      240.00      10.000     2.73785E-02
         TOTAL TIME 8.64000E+05  14400.      240.00      10.000     2.73785E-02


end timestep


start timestep kper="1" kstp="2" mode="normal"

 UBDSV06 SAVING  SOURCE-SINK MIX IN MODEL CHARGE           PACKAGE CHARGE          CONNECTED TO MODEL CHARGE           PACKAGE SSM              ON UNIT   1978 AT TIME STEP      2, STRESS PERIOD      1
 UBDSV06 SAVING              CNC IN MODEL CHARGE           PACKAGE CHARGE          CONNECTED TO MODEL CHARGE           PACKAGE CNC              ON UNIT   1978 AT TIME STEP      2, STRESS PERIOD      1

 SSM PACKAGE (SSM) FLOW RATES   PERIOD      1   STEP        2
 ------------------------------------------------------------------------------------------------
   NUMBER   CELLID                   BOUND Q        SSM CONC          RATE         PACKAGE NAME  
 ------------------------------------------------------------------------------------------------
     1      (1,1,1)               2.08333319E-02 -7.00026400E-02 -1.45838823E-03       CHD       
     2      (2,1,1)               2.08333319E-02 -7.00026400E-02 -1.45838823E-03       CHD       
     3      (3,1,1)               2.08333319E-02 -7.00026400E-02 -1.45838823E-03       CHD       
     4      (4,1,1)               0.0000000       0.0000000       0.0000000            CHD       
     5      (5,1,1)               0.0000000       0.0000000       0.0000000            CHD       
     6      (6,1,1)               0.0000000       0.0000000       0.0000000            CHD       
     7      (7,1,1)               0.0000000       0.0000000       0.0000000            CHD       
     8      (8,1,1)               0.0000000       0.0000000       0.0000000            CHD       
     9      (9,1,1)               0.0000000       0.0000000       0.0000000            CHD       
     10     (10,1,1)              0.0000000       0.0000000       0.0000000            CHD       
     11     (1,1,25)             -2.08333370E-02  4.54226200E-02 -9.46304749E-04       CHD       
     12     (2,1,25)             -2.08333370E-02  4.54226200E-02 -9.46304749E-04       CHD       
     13     (3,1,25)             -2.08333370E-02  4.54226200E-02 -9.46304749E-04       CHD       
     14     (4,1,25)             -2.08333370E-02  4.54226200E-02 -9.46304750E-04       CHD       
     15     (5,1,25)             -2.08333370E-02  4.54226200E-02 -9.46304750E-04       CHD       
     16     (6,1,25)             -2.08333370E-02  4.54226200E-02 -9.46304750E-04       CHD       
     17     (7,1,25)             -2.08333370E-02  4.54226200E-02 -9.46304751E-04       CHD       
     18     (8,1,25)             -2.08333370E-02  4.54226200E-02 -9.46304751E-04       CHD       
     19     (9,1,25)             -2.08333370E-02  4.54226200E-02 -9.46304751E-04       CHD       
     20     (10,1,25)            -2.08333370E-02  4.54226200E-02 -9.46304750E-04       CHD       
 ------------------------------------------------------------------------------------------------




 CNC PACKAGE (CNC) FLOW RATES   PERIOD      1   STEP        2
 -----------------------------------------------
   NUMBER   CELLID                    RATE      
 -----------------------------------------------
     1      (4,1,1)               3.62106844E-03
     2      (5,1,1)               9.54899591E-04
     3      (6,1,1)               9.50173317E-04
     4      (7,1,1)               9.48037919E-04
     5      (8,1,1)               9.47085388E-04
     6      (9,1,1)               9.46673647E-04
     7      (10,1,1)              9.46520691E-04
 -----------------------------------------------



1
  CONCENTRATION IN LAYER   1 AT END OF TIME STEP   2 IN STRESS PERIOD    1
  ---------------------------------------------------------------------------

                1               2               3               4               5               6               7               8               9              10
               11              12              13              14              15              16              17              18              19              20
               21              22              23              24              25
 ................................................................................................................................................................
   1  *************** *************** *************** *************** *************** *************** *************** *************** *************** ***************
      *************** *************** *************** *************** *************** *************** *************** *************** *************** ***************
      *************** *************** *************** *************** ***************
1
  CONCENTRATION IN LAYER   2 AT END OF TIME STEP   2 IN STRESS PERIOD    1
  ---------------------------------------------------------------------------

                1               2               3               4               5               6               7               8               9              10
               11              12              13              14              15              16              17              18              19              20
               21              22              23              24              25
 ................................................................................................................................................................
   1  *************** *************** *************** *************** *************** *************** *************** *************** *************** ***************
      *************** *************** *************** *************** *************** *************** *************** *************** *************** ***************
      *************** *************** *************** *************** ***************
1
  CONCENTRATION IN LAYER   3 AT END OF TIME STEP   2 IN STRESS PERIOD    1
  ---------------------------------------------------------------------------

                1               2               3               4               5               6               7               8               9              10
               11              12              13              14              15              16              17              18              19              20
               21              22              23              24              25
 ................................................................................................................................................................
   1  *************** *************** *************** *************** *************** *************** *************** *************** *************** ***************
      *************** *************** *************** *************** *************** *************** *************** *************** *************** ***************
      *************** *************** *************** *************** ***************
1
  CONCENTRATION IN LAYER   4 AT END OF TIME STEP   2 IN STRESS PERIOD    1
  ---------------------------------------------------------------------------

                1               2               3               4               5               6               7               8               9              10
               11              12              13              14              15              16              17              18              19              20
               21              22              23              24              25
 ................................................................................................................................................................
   1  *************** *************** *************** *************** *************** *************** *************** *************** *************** ***************
      *************** *************** *************** *************** *************** *************** *************** *************** *************** ***************
      *************** *************** *************** *************** ***************
1
  CONCENTRATION IN LAYER   5 AT END OF TIME STEP   2 IN STRESS PERIOD    1
  ---------------------------------------------------------------------------

                1               2               3               4               5               6               7               8               9              10
               11              12              13              14              15              16              17              18              19              20
               21              22              23              24              25
 ................................................................................................................................................................
   1  *************** *************** *************** *************** *************** *************** *************** *************** *************** ***************
      *************** *************** *************** *************** *************** *************** *************** *************** *************** ***************
      *************** *************** *************** *************** ***************
1
  CONCENTRATION IN LAYER   6 AT END OF TIME STEP   2 IN STRESS PERIOD    1
  ---------------------------------------------------------------------------

                1               2               3               4               5               6               7               8               9              10
               11              12              13              14              15              16              17              18              19              20
               21              22              23              24              25
 ................................................................................................................................................................
   1  *************** *************** *************** *************** *************** *************** *************** *************** *************** ***************
      *************** *************** *************** *************** *************** *************** *************** *************** *************** ***************
      *************** *************** *************** *************** ***************
1
  CONCENTRATION IN LAYER   7 AT END OF TIME STEP   2 IN STRESS PERIOD    1
  ---------------------------------------------------------------------------

                1               2               3               4               5               6               7               8               9              10
               11              12              13              14              15              16              17              18              19              20
               21              22              23              24              25
 ................................................................................................................................................................
   1  *************** *************** *************** *************** *************** *************** *************** *************** *************** ***************
      *************** *************** *************** *************** *************** *************** *************** *************** *************** ***************
      *************** *************** *************** *************** ***************
1
  CONCENTRATION IN LAYER   8 AT END OF TIME STEP   2 IN STRESS PERIOD    1
  ---------------------------------------------------------------------------

                1               2               3               4               5               6               7               8               9              10
               11              12              13              14              15              16              17              18              19              20
               21              22              23              24              25
 ................................................................................................................................................................
   1  *************** *************** *************** *************** *************** *************** *************** *************** *************** ***************
      *************** *************** *************** *************** *************** *************** *************** *************** *************** ***************
      *************** *************** *************** *************** ***************
1
  CONCENTRATION IN LAYER   9 AT END OF TIME STEP   2 IN STRESS PERIOD    1
  ---------------------------------------------------------------------------

                1               2               3               4               5               6               7               8               9              10
               11              12              13              14              15              16              17              18              19              20
               21              22              23              24              25
 ................................................................................................................................................................
   1  *************** *************** *************** *************** *************** *************** *************** *************** *************** ***************
      *************** *************** *************** *************** *************** *************** *************** *************** *************** ***************
      *************** *************** *************** *************** ***************
1
  CONCENTRATION IN LAYER  10 AT END OF TIME STEP   2 IN STRESS PERIOD    1
  ---------------------------------------------------------------------------

                1               2               3               4               5               6               7               8               9              10
               11              12              13              14              15              16              17              18              19              20
               21              22              23              24              25
 ................................................................................................................................................................
   1  *************** *************** *************** *************** *************** *************** *************** *************** *************** ***************
      *************** *************** *************** *************** *************** *************** *************** *************** *************** ***************
      *************** *************** *************** *************** ***************

 CONCENTRATION WILL BE SAVED ON UNIT 1979 AT END OF TIME STEP    2, STRESS PERIOD    1


  MASS BUDGET FOR ENTIRE MODEL AT END OF TIME STEP    2, STRESS PERIOD   1
  ---------------------------------------------------------------------------------------------------

     CUMULATIVE MASS      M       RATES FOR THIS TIME STEP      M/T          PACKAGE NAME    
     ------------------                 ------------------------                     ----------------

           IN:                                      IN:
           ---                                      ---
     STORAGE-AQUEOUS =           0.1003       STORAGE-AQUEOUS =       4.5238E-03     MST                              
                 CHD =           0.0000                   CHD =           0.0000     SSM_CHD                          
                 CNC =           0.1764                   CNC =       9.3145E-03     CNC                              

            TOTAL IN =           0.2768              TOTAL IN =       1.3838E-02

          OUT:                                     OUT:
          ----                                     ----
     STORAGE-AQUEOUS =       2.5292E-08       STORAGE-AQUEOUS =       5.1203E-10     MST                              
                 CHD =           0.2768                   CHD =       1.3838E-02     SSM_CHD                          
                 CNC =           0.0000                   CNC =           0.0000     CNC                              

           TOTAL OUT =           0.2768             TOTAL OUT =       1.3838E-02

            IN - OUT =      -5.5429E-09              IN - OUT =      -2.5354E-10

 PERCENT DISCREPANCY =          -0.00     PERCENT DISCREPANCY =          -0.00




         TIME SUMMARY AT END OF TIME STEP    2 IN STRESS PERIOD    1
                    SECONDS     MINUTES      HOURS       DAYS        YEARS
                    -----------------------------------------------------------
   TIME STEP LENGTH 8.64000E+05  14400.      240.00      10.000     2.73785E-02
 STRESS PERIOD TIME 1.72800E+06  28800.      480.00      20.000     5.47570E-02
         TOTAL TIME 1.72800E+06  28800.      480.00      20.000     5.47570E-02


end timestep


start timestep kper="1" kstp="3" mode="normal"

 UBDSV06 SAVING  SOURCE-SINK MIX IN MODEL CHARGE           PACKAGE CHARGE          CONNECTED TO MODEL CHARGE           PACKAGE SSM              ON UNIT   1978 AT TIME STEP      3, STRESS PERIOD      1
 UBDSV06 SAVING              CNC IN MODEL CHARGE           PACKAGE CHARGE          CONNECTED TO MODEL CHARGE           PACKAGE CNC              ON UNIT   1978 AT TIME STEP      3, STRESS PERIOD      1

 SSM PACKAGE (SSM) FLOW RATES   PERIOD      1   STEP        3
 ------------------------------------------------------------------------------------------------
   NUMBER   CELLID                   BOUND Q        SSM CONC          RATE         PACKAGE NAME  
 ------------------------------------------------------------------------------------------------
     1      (1,1,1)               2.08333325E-02 -7.00026400E-02 -1.45838828E-03       CHD       
     2      (2,1,1)               2.08333325E-02 -7.00026400E-02 -1.45838828E-03       CHD       
     3      (3,1,1)               2.08333325E-02 -7.00026400E-02 -1.45838828E-03       CHD       
     4      (4,1,1)               0.0000000       0.0000000       0.0000000            CHD       
     5      (5,1,1)               0.0000000       0.0000000       0.0000000            CHD       
     6      (6,1,1)               0.0000000       0.0000000       0.0000000            CHD       
     7      (7,1,1)               0.0000000       0.0000000       0.0000000            CHD       
     8      (8,1,1)               0.0000000       0.0000000       0.0000000            CHD       
     9      (9,1,1)               0.0000000       0.0000000       0.0000000            CHD       
     10     (10,1,1)              0.0000000       0.0000000       0.0000000            CHD       
     11     (1,1,25)             -2.08333362E-02  4.54226200E-02 -9.46304713E-04       CHD       
     12     (2,1,25)             -2.08333362E-02  4.54226200E-02 -9.46304713E-04       CHD       
     13     (3,1,25)             -2.08333362E-02  4.54226200E-02 -9.46304713E-04       CHD       
     14     (4,1,25)             -2.08333362E-02  4.54226200E-02 -9.46304713E-04       CHD       
     15     (5,1,25)             -2.08333362E-02  4.54226200E-02 -9.46304714E-04       CHD       
     16     (6,1,25)             -2.08333362E-02  4.54226200E-02 -9.46304714E-04       CHD       
     17     (7,1,25)             -2.08333362E-02  4.54226200E-02 -9.46304714E-04       CHD       
     18     (8,1,25)             -2.08333362E-02  4.54226200E-02 -9.46304714E-04       CHD       
     19     (9,1,25)             -2.08333362E-02  4.54226200E-02 -9.46304714E-04       CHD       
     20     (10,1,25)            -2.08333362E-02  4.54226200E-02 -9.46304714E-04       CHD       
 ------------------------------------------------------------------------------------------------




 CNC PACKAGE (CNC) FLOW RATES   PERIOD      1   STEP        3
 -----------------------------------------------
   NUMBER   CELLID                    RATE      
 -----------------------------------------------
     1      (4,1,1)               4.23929675E-03
     2      (5,1,1)               9.62625016E-04
     3      (6,1,1)               9.54245304E-04
     4      (7,1,1)               9.50139074E-04
     5      (8,1,1)               9.48164494E-04
     6      (9,1,1)               9.47253238E-04
     7      (10,1,1)              9.46898228E-04
 -----------------------------------------------



1
  CONCENTRATION IN LAYER   1 AT END OF TIME STEP   3 IN STRESS PERIOD    1
  ---------------------------------------------------------------------------

                1               2               3               4               5               6               7               8               9              10
               11              12              13              14              15              16              17              18              19              20
               21              22              23              24              25
 ................................................................................................................................................................
   1  *************** *************** *************** *************** *************** *************** *************** *************** *************** ***************
      *************** *************** *************** *************** *************** *************** *************** *************** *************** ***************
      *************** *************** *************** *************** ***************
1
  CONCENTRATION IN LAYER   2 AT END OF TIME STEP   3 IN STRESS PERIOD    1
  ---------------------------------------------------------------------------

                1               2               3               4               5               6               7               8               9              10
               11              12              13              14              15              16              17              18              19              20
               21              22              23              24              25
 ................................................................................................................................................................
   1  *************** *************** *************** *************** *************** *************** *************** *************** *************** ***************
      *************** *************** *************** *************** *************** *************** *************** *************** *************** ***************
      *************** *************** *************** *************** ***************
1
  CONCENTRATION IN LAYER   3 AT END OF TIME STEP   3 IN STRESS PERIOD    1
  ---------------------------------------------------------------------------

                1               2               3               4               5               6               7               8               9              10
               11              12              13              14              15              16              17              18              19              20
               21              22              23              24              25
 ................................................................................................................................................................
   1  *************** *************** *************** *************** *************** *************** *************** *************** *************** ***************
      *************** *************** *************** *************** *************** *************** *************** *************** *************** ***************
      *************** *************** *************** *************** ***************
1
  CONCENTRATION IN LAYER   4 AT END OF TIME STEP   3 IN STRESS PERIOD    1
  ---------------------------------------------------------------------------

                1               2               3               4               5               6               7               8               9              10
               11              12              13              14              15              16              17              18              19              20
               21              22              23              24              25
 ................................................................................................................................................................
   1  *************** *************** *************** *************** *************** *************** *************** *************** *************** ***************
      *************** *************** *************** *************** *************** *************** *************** *************** *************** ***************
      *************** *************** *************** *************** ***************
1
  CONCENTRATION IN LAYER   5 AT END OF TIME STEP   3 IN STRESS PERIOD    1
  ---------------------------------------------------------------------------

                1               2               3               4               5               6               7               8               9              10
               11              12              13              14              15              16              17              18              19              20
               21              22              23              24              25
 ................................................................................................................................................................
   1  *************** *************** *************** *************** *************** *************** *************** *************** *************** ***************
      *************** *************** *************** *************** *************** *************** *************** *************** *************** ***************
      *************** *************** *************** *************** ***************
1
  CONCENTRATION IN LAYER   6 AT END OF TIME STEP   3 IN STRESS PERIOD    1
  ---------------------------------------------------------------------------

                1               2               3               4               5               6               7               8               9              10
               11              12              13              14              15              16              17              18              19              20
               21              22              23              24              25
 ................................................................................................................................................................
   1  *************** *************** *************** *************** *************** *************** *************** *************** *************** ***************
      *************** *************** *************** *************** *************** *************** *************** *************** *************** ***************
      *************** *************** *************** *************** ***************
1
  CONCENTRATION IN LAYER   7 AT END OF TIME STEP   3 IN STRESS PERIOD    1
  ---------------------------------------------------------------------------

                1               2               3               4               5               6               7               8               9              10
               11              12              13              14              15              16              17              18              19              20
               21              22              23              24              25
 ................................................................................................................................................................
   1  *************** *************** *************** *************** *************** *************** *************** *************** *************** ***************
      *************** *************** *************** *************** *************** *************** *************** *************** *************** ***************
      *************** *************** *************** *************** ***************
1
  CONCENTRATION IN LAYER   8 AT END OF TIME STEP   3 IN STRESS PERIOD    1
  ---------------------------------------------------------------------------

                1               2               3               4               5               6               7               8               9              10
               11              12              13              14              15              16              17              18              19              20
               21              22              23              24              25
 ................................................................................................................................................................
   1  *************** *************** *************** *************** *************** *************** *************** *************** *************** ***************
      *************** *************** *************** *************** *************** *************** *************** *************** *************** ***************
      *************** *************** *************** *************** ***************
1
  CONCENTRATION IN LAYER   9 AT END OF TIME STEP   3 IN STRESS PERIOD    1
  ---------------------------------------------------------------------------

                1               2               3               4               5               6               7               8               9              10
               11              12              13              14              15              16              17              18              19              20
               21              22              23              24              25
 ................................................................................................................................................................
   1  *************** *************** *************** *************** *************** *************** *************** *************** *************** ***************
      *************** *************** *************** *************** *************** *************** *************** *************** *************** ***************
      *************** *************** *************** *************** ***************
1
  CONCENTRATION IN LAYER  10 AT END OF TIME STEP   3 IN STRESS PERIOD    1
  ---------------------------------------------------------------------------

                1               2               3               4               5               6               7               8               9              10
               11              12              13              14              15              16              17              18              19              20
               21              22              23              24              25
 ................................................................................................................................................................
   1  *************** *************** *************** *************** *************** *************** *************** *************** *************** ***************
      *************** *************** *************** *************** *************** *************** *************** *************** *************** ***************
      *************** *************** *************** *************** ***************

 CONCENTRATION WILL BE SAVED ON UNIT 1979 AT END OF TIME STEP    3, STRESS PERIOD    1


  MASS BUDGET FOR ENTIRE MODEL AT END OF TIME STEP    3, STRESS PERIOD   1
  ---------------------------------------------------------------------------------------------------

     CUMULATIVE MASS      M       RATES FOR THIS TIME STEP      M/T          PACKAGE NAME    
     ------------------                 ------------------------                     ----------------

           IN:                                      IN:
           ---                                      ---
     STORAGE-AQUEOUS =           0.1392       STORAGE-AQUEOUS =       3.8896E-03     MST                              
                 CHD =           0.0000                   CHD =           0.0000     SSM_CHD                          
                 CNC =           0.2759                   CNC =       9.9486E-03     CNC                              

            TOTAL IN =           0.4151              TOTAL IN =       1.3838E-02

          OUT:                                     OUT:
          ----                                     ----
     STORAGE-AQUEOUS =       2.6732E-08       STORAGE-AQUEOUS =       1.4398E-10     MST                              
                 CHD =           0.4151                   CHD =       1.3838E-02     SSM_CHD                          
                 CNC =           0.0000                   CNC =           0.0000     CNC                              

           TOTAL OUT =           0.4151             TOTAL OUT =       1.3838E-02

            IN - OUT =      -7.4330E-09              IN - OUT =      -1.8901E-10

 PERCENT DISCREPANCY =          -0.00     PERCENT DISCREPANCY =          -0.00




         TIME SUMMARY AT END OF TIME STEP    3 IN STRESS PERIOD    1
                    SECONDS     MINUTES      HOURS       DAYS        YEARS
                    -----------------------------------------------------------
   TIME STEP LENGTH 8.64000E+05  14400.      240.00      10.000     2.73785E-02
 STRESS PERIOD TIME 2.59200E+06  43200.      720.00      30.000     8.21355E-02
         TOTAL TIME 2.59200E+06  43200.      720.00      30.000     8.21355E-02


end timestep


start timestep kper="1" kstp="4" mode="normal"

 UBDSV06 SAVING  SOURCE-SINK MIX IN MODEL CHARGE           PACKAGE CHARGE          CONNECTED TO MODEL CHARGE           PACKAGE SSM              ON UNIT   1978 AT TIME STEP      4, STRESS PERIOD      1
 UBDSV06 SAVING              CNC IN MODEL CHARGE           PACKAGE CHARGE          CONNECTED TO MODEL CHARGE           PACKAGE CNC              ON UNIT   1978 AT TIME STEP      4, STRESS PERIOD      1

 SSM PACKAGE (SSM) FLOW RATES   PERIOD      1   STEP        4
 ------------------------------------------------------------------------------------------------
   NUMBER   CELLID                   BOUND Q        SSM CONC          RATE         PACKAGE NAME  
 ------------------------------------------------------------------------------------------------
     1      (1,1,1)               2.08333321E-02 -7.00026400E-02 -1.45838825E-03       CHD       
     2      (2,1,1)               2.08333321E-02 -7.00026400E-02 -1.45838825E-03       CHD       
     3      (3,1,1)               2.08333321E-02 -7.00026400E-02 -1.45838825E-03       CHD       
     4      (4,1,1)               0.0000000       0.0000000       0.0000000            CHD       
     5      (5,1,1)               0.0000000       0.0000000       0.0000000            CHD       
     6      (6,1,1)               0.0000000       0.0000000       0.0000000            CHD       
     7      (7,1,1)               0.0000000       0.0000000       0.0000000            CHD       
     8      (8,1,1)               0.0000000       0.0000000       0.0000000            CHD       
     9      (9,1,1)               0.0000000       0.0000000       0.0000000            CHD       
     10     (10,1,1)              0.0000000       0.0000000       0.0000000            CHD       
     11     (1,1,25)             -2.08333356E-02  4.54226200E-02 -9.46304686E-04       CHD       
     12     (2,1,25)             -2.08333356E-02  4.54226200E-02 -9.46304686E-04       CHD       
     13     (3,1,25)             -2.08333356E-02  4.54226199E-02 -9.46304686E-04       CHD       
     14     (4,1,25)             -2.08333356E-02  4.54226199E-02 -9.46304686E-04       CHD       
     15     (5,1,25)             -2.08333356E-02  4.54226199E-02 -9.46304686E-04       CHD       
     16     (6,1,25)             -2.08333356E-02  4.54226199E-02 -9.46304686E-04       CHD       
     17     (7,1,25)             -2.08333356E-02  4.54226199E-02 -9.46304686E-04       CHD       
     18     (8,1,25)             -2.08333356E-02  4.54226199E-02 -9.46304686E-04       CHD       
     19     (9,1,25)             -2.08333356E-02  4.54226199E-02 -9.46304686E-04       CHD       
     20     (10,1,25)            -2.08333356E-02  4.54226199E-02 -9.46304686E-04       CHD       
 ------------------------------------------------------------------------------------------------




 CNC PACKAGE (CNC) FLOW RATES   PERIOD      1   STEP        4
 -----------------------------------------------
   NUMBER   CELLID                    RATE      
 -----------------------------------------------
     1      (4,1,1)               4.65443604E-03
     2      (5,1,1)               9.71321060E-04
     3      (6,1,1)               9.59227187E-04
     4      (7,1,1)               9.52928880E-04
     5      (8,1,1)               9.49719792E-04
     6      (9,1,1)               9.48161507E-04
     7      (10,1,1)              9.47531667E-04
 -----------------------------------------------



1
  CONCENTRATION IN LAYER   1 AT END OF TIME STEP   4 IN STRESS PERIOD    1
  ---------------------------------------------------------------------------

                1               2               3               4               5               6               7               8               9              10
               11              12              13              14              15              16              17              18              19              20
               21              22              23              24              25
 ................................................................................................................................................................
   1  *************** *************** *************** *************** *************** *************** *************** *************** *************** ***************
      *************** *************** *************** *************** *************** *************** *************** *************** *************** ***************
      *************** *************** *************** *************** ***************
1
  CONCENTRATION IN LAYER   2 AT END OF TIME STEP   4 IN STRESS PERIOD    1
  ---------------------------------------------------------------------------

                1               2               3               4               5               6               7               8               9              10
               11              12              13              14              15              16              17              18              19              20
               21              22              23              24              25
 ................................................................................................................................................................
   1  *************** *************** *************** *************** *************** *************** *************** *************** *************** ***************
      *************** *************** *************** *************** *************** *************** *************** *************** *************** ***************
      *************** *************** *************** *************** ***************
1
  CONCENTRATION IN LAYER   3 AT END OF TIME STEP   4 IN STRESS PERIOD    1
  ---------------------------------------------------------------------------

                1               2               3               4               5               6               7               8               9              10
               11              12              13              14              15              16              17              18              19              20
               21              22              23              24              25
 ................................................................................................................................................................
   1  *************** *************** *************** *************** *************** *************** *************** *************** *************** ***************
      *************** *************** *************** *************** *************** *************** *************** *************** *************** ***************
      *************** *************** *************** *************** ***************
1
  CONCENTRATION IN LAYER   4 AT END OF TIME STEP   4 IN STRESS PERIOD    1
  ---------------------------------------------------------------------------

                1               2               3               4               5               6               7               8               9              10
               11              12              13              14              15              16              17              18              19              20
               21              22              23              24              25
 ................................................................................................................................................................
   1  *************** *************** *************** *************** *************** *************** *************** *************** *************** ***************
      *************** *************** *************** *************** *************** *************** *************** *************** *************** ***************
      *************** *************** *************** *************** ***************
1
  CONCENTRATION IN LAYER   5 AT END OF TIME STEP   4 IN STRESS PERIOD    1
  ---------------------------------------------------------------------------

                1               2               3               4               5               6               7               8               9              10
               11              12              13              14              15              16              17              18              19              20
               21              22              23              24              25
 ................................................................................................................................................................
   1  *************** *************** *************** *************** *************** *************** *************** *************** *************** ***************
      *************** *************** *************** *************** *************** *************** *************** *************** *************** ***************
      *************** *************** *************** *************** ***************
1
  CONCENTRATION IN LAYER   6 AT END OF TIME STEP   4 IN STRESS PERIOD    1
  ---------------------------------------------------------------------------

                1               2               3               4               5               6               7               8               9              10
               11              12              13              14              15              16              17              18              19              20
               21              22              23              24              25
 ................................................................................................................................................................
   1  *************** *************** *************** *************** *************** *************** *************** *************** *************** ***************
      *************** *************** *************** *************** *************** *************** *************** *************** *************** ***************
      *************** *************** *************** *************** ***************
1
  CONCENTRATION IN LAYER   7 AT END OF TIME STEP   4 IN STRESS PERIOD    1
  ---------------------------------------------------------------------------

                1               2               3               4               5               6               7               8               9              10
               11              12              13              14              15              16              17              18              19              20
               21              22              23              24              25
 ................................................................................................................................................................
   1  *************** *************** *************** *************** *************** *************** *************** *************** *************** ***************
      *************** *************** *************** *************** *************** *************** *************** *************** *************** ***************
      *************** *************** *************** *************** ***************
1
  CONCENTRATION IN LAYER   8 AT END OF TIME STEP   4 IN STRESS PERIOD    1
  ---------------------------------------------------------------------------

                1               2               3               4               5               6               7               8               9              10
               11              12              13              14              15              16              17              18              19              20
               21              22              23              24              25
 ................................................................................................................................................................
   1  *************** *************** *************** *************** *************** *************** *************** *************** *************** ***************
      *************** *************** *************** *************** *************** *************** *************** *************** *************** ***************
      *************** *************** *************** *************** ***************
1
  CONCENTRATION IN LAYER   9 AT END OF TIME STEP   4 IN STRESS PERIOD    1
  ---------------------------------------------------------------------------

                1               2               3               4               5               6               7               8               9              10
               11              12              13              14              15              16              17              18              19              20
               21              22              23              24              25
 ................................................................................................................................................................
   1  *************** *************** *************** *************** *************** *************** *************** *************** *************** ***************
      *************** *************** *************** *************** *************** *************** *************** *************** *************** ***************
      *************** *************** *************** *************** ***************
1
  CONCENTRATION IN LAYER  10 AT END OF TIME STEP   4 IN STRESS PERIOD    1
  ---------------------------------------------------------------------------

                1               2               3               4               5               6               7               8               9              10
               11              12              13              14              15              16              17              18              19              20
               21              22              23              24              25
 ................................................................................................................................................................
   1  *************** *************** *************** *************** *************** *************** *************** *************** *************** ***************
      *************** *************** *************** *************** *************** *************** *************** *************** *************** ***************
      *************** *************** *************** *************** ***************

 CONCENTRATION WILL BE SAVED ON UNIT 1979 AT END OF TIME STEP    4, STRESS PERIOD    1


  MASS BUDGET FOR ENTIRE MODEL AT END OF TIME STEP    4, STRESS PERIOD   1
  ---------------------------------------------------------------------------------------------------

     CUMULATIVE MASS      M       RATES FOR THIS TIME STEP      M/T          PACKAGE NAME    
     ------------------                 ------------------------                     ----------------

           IN:                                      IN:
           ---                                      ---
     STORAGE-AQUEOUS =           0.1738       STORAGE-AQUEOUS =       3.4549E-03     MST                              
                 CHD =           0.0000                   CHD =           0.0000     SSM_CHD                          
                 CNC =           0.3798                   CNC =       1.0383E-02     CNC                              

            TOTAL IN =           0.5535              TOTAL IN =       1.3838E-02

          OUT:                                     OUT:
          ----                                     ----
     STORAGE-AQUEOUS =       2.6732E-08       STORAGE-AQUEOUS =           0.0000     MST                              
                 CHD =           0.5535                   CHD =       1.3838E-02     SSM_CHD                          
                 CNC =           0.0000                   CNC =           0.0000     CNC                              

           TOTAL OUT =           0.5535             TOTAL OUT =       1.3838E-02

            IN - OUT =      -1.1908E-08              IN - OUT =      -4.4747E-10

 PERCENT DISCREPANCY =          -0.00     PERCENT DISCREPANCY =          -0.00




         TIME SUMMARY AT END OF TIME STEP    4 IN STRESS PERIOD    1
                    SECONDS     MINUTES      HOURS       DAYS        YEARS
                    -----------------------------------------------------------
   TIME STEP LENGTH 8.64000E+05  14400.      240.00      10.000     2.73785E-02
 STRESS PERIOD TIME 3.45600E+06  57600.      960.00      40.000     0.10951    
         TOTAL TIME 3.45600E+06  57600.      960.00      40.000     0.10951    


end timestep


start timestep kper="1" kstp="5" mode="normal"

 UBDSV06 SAVING  SOURCE-SINK MIX IN MODEL CHARGE           PACKAGE CHARGE          CONNECTED TO MODEL CHARGE           PACKAGE SSM              ON UNIT   1978 AT TIME STEP      5, STRESS PERIOD      1
 UBDSV06 SAVING              CNC IN MODEL CHARGE           PACKAGE CHARGE          CONNECTED TO MODEL CHARGE           PACKAGE CNC              ON UNIT   1978 AT TIME STEP      5, STRESS PERIOD      1

 SSM PACKAGE (SSM) FLOW RATES   PERIOD      1   STEP        5
 ------------------------------------------------------------------------------------------------
   NUMBER   CELLID                   BOUND Q        SSM CONC          RATE         PACKAGE NAME  
 ------------------------------------------------------------------------------------------------
     1      (1,1,1)               2.08333321E-02 -7.00026400E-02 -1.45838825E-03       CHD       
     2      (2,1,1)               2.08333321E-02 -7.00026400E-02 -1.45838825E-03       CHD       
     3      (3,1,1)               2.08333321E-02 -7.00026400E-02 -1.45838825E-03       CHD       
     4      (4,1,1)               0.0000000       0.0000000       0.0000000            CHD       
     5      (5,1,1)               0.0000000       0.0000000       0.0000000            CHD       
     6      (6,1,1)               0.0000000       0.0000000       0.0000000            CHD       
     7      (7,1,1)               0.0000000       0.0000000       0.0000000            CHD       
     8      (8,1,1)               0.0000000       0.0000000       0.0000000            CHD       
     9      (9,1,1)               0.0000000       0.0000000       0.0000000            CHD       
     10     (10,1,1)              0.0000000       0.0000000       0.0000000            CHD       
     11     (1,1,25)             -2.08333353E-02  4.54226199E-02 -9.46304672E-04       CHD       
[...]
               21              22              23              24              25
 ................................................................................................................................................................
   1  *************** *************** *************** *************** *************** *************** *************** *************** *************** ***************
      *************** *************** *************** *************** *************** *************** *************** *************** *************** ***************
      *************** *************** *************** *************** ***************

 CONCENTRATION WILL BE SAVED ON UNIT 1979 AT END OF TIME STEP  199, STRESS PERIOD    1


  MASS BUDGET FOR ENTIRE MODEL AT END OF TIME STEP  199, STRESS PERIOD   1
  ---------------------------------------------------------------------------------------------------

     CUMULATIVE MASS      M       RATES FOR THIS TIME STEP      M/T          PACKAGE NAME    
     ------------------                 ------------------------                     ----------------

           IN:                                      IN:
           ---                                      ---
     STORAGE-AQUEOUS =           3.4041       STORAGE-AQUEOUS =       3.2744E-04     MST                              
                 CHD =           0.0000                   CHD =           0.0000     SSM_CHD                          
                 CNC =          23.2552                   CNC =       1.1763E-02     CNC                              

            TOTAL IN =          26.6593              TOTAL IN =       1.2090E-02

          OUT:                                     OUT:
          ----                                     ----
     STORAGE-AQUEOUS =       2.2010E-05       STORAGE-AQUEOUS =       2.6036E-08     MST                              
                 CHD =          26.6593                   CHD =       1.2090E-02     SSM_CHD                          
                 CNC =           0.0000                   CNC =           0.0000     CNC                              

           TOTAL OUT =          26.6593             TOTAL OUT =       1.2090E-02

            IN - OUT =       6.6205E-06              IN - OUT =       2.6144E-08

 PERCENT DISCREPANCY =           0.00     PERCENT DISCREPANCY =           0.00




         TIME SUMMARY AT END OF TIME STEP  199 IN STRESS PERIOD    1
                    SECONDS     MINUTES      HOURS       DAYS        YEARS
                    -----------------------------------------------------------
   TIME STEP LENGTH 8.64000E+05  14400.      240.00      10.000     2.73785E-02
 STRESS PERIOD TIME 1.71936E+08 2.86560E+06  47760.      1990.0      5.4483    
         TOTAL TIME 1.71936E+08 2.86560E+06  47760.      1990.0      5.4483    


end timestep


start timestep kper="1" kstp="200" mode="normal"

 UBDSV06 SAVING  SOURCE-SINK MIX IN MODEL CHARGE           PACKAGE CHARGE          CONNECTED TO MODEL CHARGE           PACKAGE SSM              ON UNIT   1978 AT TIME STEP    200, STRESS PERIOD      1
 UBDSV06 SAVING              CNC IN MODEL CHARGE           PACKAGE CHARGE          CONNECTED TO MODEL CHARGE           PACKAGE CNC              ON UNIT   1978 AT TIME STEP    200, STRESS PERIOD      1

 SSM PACKAGE (SSM) FLOW RATES   PERIOD      1   STEP      200
 ------------------------------------------------------------------------------------------------
   NUMBER   CELLID                   BOUND Q        SSM CONC          RATE         PACKAGE NAME  
 ------------------------------------------------------------------------------------------------
     1      (1,1,1)               2.08333330E-02 -7.00026400E-02 -1.45838831E-03       CHD       
     2      (2,1,1)               2.08333330E-02 -7.00026400E-02 -1.45838831E-03       CHD       
     3      (3,1,1)               2.08333330E-02 -7.00026400E-02 -1.45838831E-03       CHD       
     4      (4,1,1)               0.0000000       0.0000000       0.0000000            CHD       
     5      (5,1,1)               0.0000000       0.0000000       0.0000000            CHD       
     6      (6,1,1)               0.0000000       0.0000000       0.0000000            CHD       
     7      (7,1,1)               0.0000000       0.0000000       0.0000000            CHD       
     8      (8,1,1)               0.0000000       0.0000000       0.0000000            CHD       
     9      (9,1,1)               0.0000000       0.0000000       0.0000000            CHD       
     10     (10,1,1)              0.0000000       0.0000000       0.0000000            CHD       
     11     (1,1,25)             -2.08333337E-02  3.69804833E-02 -7.70426747E-04       CHD       
     12     (2,1,25)             -2.08333337E-02  3.69804897E-02 -7.70426880E-04       CHD       
     13     (3,1,25)             -2.08333337E-02  3.69804968E-02 -7.70427028E-04       CHD       
     14     (4,1,25)             -2.08333337E-02  3.69805037E-02 -7.70427172E-04       CHD       
     15     (5,1,25)             -2.08333337E-02  3.69805106E-02 -7.70427316E-04       CHD       
     16     (6,1,25)             -2.08333337E-02  3.69805179E-02 -7.70427468E-04       CHD       
     17     (7,1,25)             -2.08333337E-02  3.69805261E-02 -7.70427638E-04       CHD       
     18     (8,1,25)             -2.08333337E-02  3.69805358E-02 -7.70427841E-04       CHD       
     19     (9,1,25)             -2.08333337E-02  3.69805479E-02 -7.70428094E-04       CHD       
     20     (10,1,25)            -2.08333337E-02  3.69805636E-02 -7.70428419E-04       CHD       
 ------------------------------------------------------------------------------------------------




 CNC PACKAGE (CNC) FLOW RATES   PERIOD      1   STEP      200
 -----------------------------------------------
   NUMBER   CELLID                    RATE      
 -----------------------------------------------
     1      (4,1,1)               5.76686630E-03
     2      (5,1,1)               1.04979119E-03
     3      (6,1,1)               1.01734039E-03
     4      (7,1,1)               9.96520555E-04
     5      (8,1,1)               9.83546427E-04
     6      (9,1,1)               9.76028235E-04
     7      (10,1,1)              9.72584127E-04
 -----------------------------------------------



1
  CONCENTRATION IN LAYER   1 AT END OF TIME STEP 200 IN STRESS PERIOD    1
  ---------------------------------------------------------------------------

                1               2               3               4               5               6               7               8               9              10
               11              12              13              14              15              16              17              18              19              20
               21              22              23              24              25
 ................................................................................................................................................................
   1  *************** *************** *************** *************** *************** *************** *************** *************** *************** ***************
      *************** *************** *************** *************** *************** *************** *************** *************** *************** ***************
      *************** *************** *************** *************** ***************
1
  CONCENTRATION IN LAYER   2 AT END OF TIME STEP 200 IN STRESS PERIOD    1
  ---------------------------------------------------------------------------

                1               2               3               4               5               6               7               8               9              10
               11              12              13              14              15              16              17              18              19              20
               21              22              23              24              25
 ................................................................................................................................................................
   1  *************** *************** *************** *************** *************** *************** *************** *************** *************** ***************
      *************** *************** *************** *************** *************** *************** *************** *************** *************** ***************
      *************** *************** *************** *************** ***************
1
  CONCENTRATION IN LAYER   3 AT END OF TIME STEP 200 IN STRESS PERIOD    1
  ---------------------------------------------------------------------------

                1               2               3               4               5               6               7               8               9              10
               11              12              13              14              15              16              17              18              19              20
               21              22              23              24              25
 ................................................................................................................................................................
   1  *************** *************** *************** *************** *************** *************** *************** *************** *************** ***************
      *************** *************** *************** *************** *************** *************** *************** *************** *************** ***************
      *************** *************** *************** *************** ***************
1
  CONCENTRATION IN LAYER   4 AT END OF TIME STEP 200 IN STRESS PERIOD    1
  ---------------------------------------------------------------------------

                1               2               3               4               5               6               7               8               9              10
               11              12              13              14              15              16              17              18              19              20
               21              22              23              24              25
 ................................................................................................................................................................
   1  *************** *************** *************** *************** *************** *************** *************** *************** *************** ***************
      *************** *************** *************** *************** *************** *************** *************** *************** *************** ***************
      *************** *************** *************** *************** ***************
1
  CONCENTRATION IN LAYER   5 AT END OF TIME STEP 200 IN STRESS PERIOD    1
  ---------------------------------------------------------------------------

                1               2               3               4               5               6               7               8               9              10
               11              12              13              14              15              16              17              18              19              20
               21              22              23              24              25
 ................................................................................................................................................................
   1  *************** *************** *************** *************** *************** *************** *************** *************** *************** ***************
      *************** *************** *************** *************** *************** *************** *************** *************** *************** ***************
      *************** *************** *************** *************** ***************
1
  CONCENTRATION IN LAYER   6 AT END OF TIME STEP 200 IN STRESS PERIOD    1
  ---------------------------------------------------------------------------

                1               2               3               4               5               6               7               8               9              10
               11              12              13              14              15              16              17              18              19              20
               21              22              23              24              25
 ................................................................................................................................................................
   1  *************** *************** *************** *************** *************** *************** *************** *************** *************** ***************
      *************** *************** *************** *************** *************** *************** *************** *************** *************** ***************
      *************** *************** *************** *************** ***************
1
  CONCENTRATION IN LAYER   7 AT END OF TIME STEP 200 IN STRESS PERIOD    1
  ---------------------------------------------------------------------------

                1               2               3               4               5               6               7               8               9              10
               11              12              13              14              15              16              17              18              19              20
               21              22              23              24              25
 ................................................................................................................................................................
   1  *************** *************** *************** *************** *************** *************** *************** *************** *************** ***************
      *************** *************** *************** *************** *************** *************** *************** *************** *************** ***************
      *************** *************** *************** *************** ***************
1
  CONCENTRATION IN LAYER   8 AT END OF TIME STEP 200 IN STRESS PERIOD    1
  ---------------------------------------------------------------------------

                1               2               3               4               5               6               7               8               9              10
               11              12              13              14              15              16              17              18              19              20
               21              22              23              24              25
 ................................................................................................................................................................
   1  *************** *************** *************** *************** *************** *************** *************** *************** *************** ***************
      *************** *************** *************** *************** *************** *************** *************** *************** *************** ***************
      *************** *************** *************** *************** ***************
1
  CONCENTRATION IN LAYER   9 AT END OF TIME STEP 200 IN STRESS PERIOD    1
  ---------------------------------------------------------------------------

                1               2               3               4               5               6               7               8               9              10
               11              12              13              14              15              16              17              18              19              20
               21              22              23              24              25
 ................................................................................................................................................................
   1  *************** *************** *************** *************** *************** *************** *************** *************** *************** ***************
      *************** *************** *************** *************** *************** *************** *************** *************** *************** ***************
      *************** *************** *************** *************** ***************
1
  CONCENTRATION IN LAYER  10 AT END OF TIME STEP 200 IN STRESS PERIOD    1
  ---------------------------------------------------------------------------

                1               2               3               4               5               6               7               8               9              10
               11              12              13              14              15              16              17              18              19              20
               21              22              23              24              25
 ................................................................................................................................................................
   1  *************** *************** *************** *************** *************** *************** *************** *************** *************** ***************
      *************** *************** *************** *************** *************** *************** *************** *************** *************** ***************
      *************** *************** *************** *************** ***************

 CONCENTRATION WILL BE SAVED ON UNIT 1979 AT END OF TIME STEP  200, STRESS PERIOD    1


  MASS BUDGET FOR ENTIRE MODEL AT END OF TIME STEP  200, STRESS PERIOD   1
  ---------------------------------------------------------------------------------------------------

     CUMULATIVE MASS      M       RATES FOR THIS TIME STEP      M/T          PACKAGE NAME    
     ------------------                 ------------------------                     ----------------

           IN:                                      IN:
           ---                                      ---
     STORAGE-AQUEOUS =           3.4073       STORAGE-AQUEOUS =       3.1681E-04     MST                              
                 CHD =           0.0000                   CHD =           0.0000     SSM_CHD                          
                 CNC =          23.3728                   CNC =       1.1763E-02     CNC                              

            TOTAL IN =          26.7801              TOTAL IN =       1.2079E-02

          OUT:                                     OUT:
          ----                                     ----
     STORAGE-AQUEOUS =       2.2276E-05       STORAGE-AQUEOUS =       2.6569E-08     MST                              
                 CHD =          26.7800                   CHD =       1.2079E-02     SSM_CHD                          
                 CNC =           0.0000                   CNC =           0.0000     CNC                              

           TOTAL OUT =          26.7801             TOTAL OUT =       1.2079E-02

            IN - OUT =       6.8803E-06              IN - OUT =       2.5979E-08

 PERCENT DISCREPANCY =           0.00     PERCENT DISCREPANCY =           0.00




         TIME SUMMARY AT END OF TIME STEP  200 IN STRESS PERIOD    1
                    SECONDS     MINUTES      HOURS       DAYS        YEARS
                    -----------------------------------------------------------
   TIME STEP LENGTH 8.64000E+05  14400.      240.00      10.000     2.73785E-02
 STRESS PERIOD TIME 1.72800E+08 2.88000E+06  48000.      2000.0      5.4757    
         TOTAL TIME 1.72800E+08 2.88000E+06  48000.      2000.0      5.4757    


end timestep

