                                   MODFLOW 6
                U.S. GEOLOGICAL SURVEY MODULAR HYDROLOGIC MODEL
                       GROUNDWATER TRANSPORT MODEL (GWT)
                VERSION 6.5.0.dev0+prt (preliminary) 10/07/2023
                               ***DEVELOP MODE***

   MODFLOW 6 compiled Oct 07 2023 02:19:02 with Intel(R) Fortran Intel(R) 64
   Compiler Classic for applications running on Intel(R) 64, Version 2021.7.0
                             Build 20220726_000000

This software is preliminary or provisional and is subject to 
revision. It is being provided to meet the need for timely best 
science. The software has not received final approval by the U.S. 
Geological Survey (USGS). No warranty, expressed or implied, is made 
by the USGS or the U.S. Government as to the functionality of the 
software and related material nor shall the fact of release 
constitute any such warranty. The software is provided on the 
condition that neither the USGS nor the U.S. Government shall be held 
liable for any damages resulting from the authorized or unauthorized 
use of the software.


As a work of the United States Government, this USGS product is 
in the public domain within the United States. You can copy, 
modify, distribute, and perform the work, even for commercial 
purposes, all without asking permission. Additionally, USGS 
waives copyright and related rights in the work worldwide 
through CC0 1.0 Universal Public Domain Dedication 
(https://creativecommons.org/publicdomain/zero/1.0/).

The following GNU Lesser General Public License (LGPL) libraries
are used in this USGS product:

    SPARSKIT version 2.0
      ilut, luson, and qsplit 
      (https://www-users.cse.umn.edu/~saad/software/SPARSKIT/)

    RCM - Reverse Cuthill McKee Ordering
      (https://people.math.sc.edu/Burkardt/f_src/rcm/rcm.html)

    BLAS - Basic Linear Algebra Subprograms Level 1
      (https://people.math.sc.edu/Burkardt/f_src/blas1_d/blas1_d.html)

    SPARSEKIT - Sparse Matrix Utility Package
      amux, dperm, dvperm, rperm, and cperm
      (https://people.sc.fsu.edu/~jburkardt/f77_src/sparsekit/sparsekit.html)

The following BSD-3 License libraries are used in this USGS product:

    Modern Fortran DAG Library
      Copyright (c) 2018, Jacob Williams
      All rights reserved.
      (https://github.com/jacobwilliams/daglib)

MODFLOW 6 compiler options: /Isrc\libmf6core.a.p /Isrc /I..\src
/Isrc\libmf6_external.a.p /MTd /nologo /warn:general /warn:truncated_source
/stand:f08 /Zi /traceback /O2 /fpe:0 /heap-arrays:0 /traceback /fpp
/Qdiag-disable:7416 /Qdiag-disable:7025 /Qdiag-disable:5268
/Fdsrc\libmf6core.a.p\Utilities_compilerversion.F90.pdb
/module:src\libmf6core.a.p
/Fosrc/libmf6core.a.p/Utilities_compilerversion.F90.obj /c

System command used to initiate simulation:
c:\Users\portega\anaconda3\envs\mf6rtm\python.exe -m ipykernel_launcher --f=c:\Users\portega\AppData\Roaming\jupyter\runtime\kernel-v2-17404w7nug58txkWt.json

MODFLOW was compiled using uniform precision.

Real Variables
  KIND: 8
  TINY (smallest non-zero value):    2.225074-308
  HUGE (largest value):    1.797693+308
  PRECISION: 15
  SIZE IN BITS: 64

Integer Variables
  KIND: 4
  HUGE (largest value): 2147483647
  SIZE IN BITS: 32

Long Integer Variables
  KIND: 8
  HUGE (largest value): 9223372036854775807
  SIZE IN BITS: 64

Logical Variables
  KIND: 4
  SIZE IN BITS: 32
 
 NAMEFILE OPTIONS:
 END NAMEFILE OPTIONS:

 DIS -- STRUCTURED GRID DISCRETIZATION PACKAGE, VERSION 2 : 3/27/2014 - INPUT READ FROM MEMPATH: __INPUT__/CL/DIS                                  


 DSP-- DISPERSION PACKAGE, VERSION 1, 1/24/2018 INPUT READ FROM MEMPATH: __INPUT__/CL/DSP                                  


 Setting Discretization Options
    Model length unit [0=UND, 1=FEET, 2=METERS, 3=CENTIMETERS] set as 2
 End Setting Discretization Options

 Setting Discretization Dimensions
    NLAY = 10
    NROW = 1
    NCOL = 25
 End Setting Discretization Dimensions

 Setting Discretization Griddata
    DELR set from input file
    DELC set from input file
    TOP set from input file
    BOTM set from input file
    IDOMAIN set from input file
 End Setting Discretization Griddata


 FMI -- FLOW MODEL INTERFACE,' VERSION 2, 8/17/2023
  FLOWS PROVIDED BY A GWF MODEL IN THIS SIMULATION

 ADV-- ADVECTION PACKAGE, VERSION 1, 8/25/2017 INPUT READ FROM UNIT 1434


 # File generated by Flopy version 3.5.0.dev0 on 07/12/2024 at 15:45:50.
 PROCESSING ADVECTION OPTIONS
    ADVECTION WEIGHTING SCHEME HAS BEEN SET TO: TVD
 END OF ADVECTION OPTIONS
 Setting DSP Options
    XT3D formulation [0=INACTIVE, 1=ACTIVE, 3=ACTIVE RHS] set to: 0
 End Setting DSP Options

 Setting DSP Griddata
    ALH set from input file
    ATH1 set from input file
    ATV set from input file
 End Setting DSP Griddata


 CNC   -- CNC PACKAGE, VERSION 8, 2/22/2014 INPUT READ FROM UNIT 1468
 # File generated by Flopy version 3.5.0.dev0 on 07/12/2024 at 15:45:50.

 PROCESSING CNC OPTIONS
    CNC FLOWS WILL BE PRINTED TO LISTING FILE.
    FLOWS WILL BE SAVED TO BUDGET FILE SPECIFIED IN OUTPUT CONTROL
 END OF CNC OPTIONS

 PROCESSING CNC DIMENSIONS
    MAXBOUND =       7
 END OF CNC DIMENSIONS

 IC -- INITIAL CONDITIONS PACKAGE, VERSION 8, 3/28/2015 INPUT READ FROM UNIT 1432
 # File generated by Flopy version 3.5.0.dev0 on 07/12/2024 at 15:45:50.
 PROCESSING GRIDDATA

 OPENED Cl.ic_strt_layer1.txt
 FILE TYPE:OPEN/CLOSE   UNIT 2022   STATUS:OLD                 
 FORMAT:FORMATTED              ACCESS:SEQUENTIAL          
 ACTION:READ                


 OPENED Cl.ic_strt_layer2.txt
 FILE TYPE:OPEN/CLOSE   UNIT 2023   STATUS:OLD                 
 FORMAT:FORMATTED              ACCESS:SEQUENTIAL          
 ACTION:READ                


 OPENED Cl.ic_strt_layer3.txt
 FILE TYPE:OPEN/CLOSE   UNIT 2024   STATUS:OLD                 
 FORMAT:FORMATTED              ACCESS:SEQUENTIAL          
 ACTION:READ                


 OPENED Cl.ic_strt_layer4.txt
 FILE TYPE:OPEN/CLOSE   UNIT 2025   STATUS:OLD                 
 FORMAT:FORMATTED              ACCESS:SEQUENTIAL          
 ACTION:READ                


 OPENED Cl.ic_strt_layer5.txt
 FILE TYPE:OPEN/CLOSE   UNIT 2026   STATUS:OLD                 
 FORMAT:FORMATTED              ACCESS:SEQUENTIAL          
 ACTION:READ                


 OPENED Cl.ic_strt_layer6.txt
 FILE TYPE:OPEN/CLOSE   UNIT 2027   STATUS:OLD                 
 FORMAT:FORMATTED              ACCESS:SEQUENTIAL          
 ACTION:READ                


 OPENED Cl.ic_strt_layer7.txt
 FILE TYPE:OPEN/CLOSE   UNIT 2028   STATUS:OLD                 
 FORMAT:FORMATTED              ACCESS:SEQUENTIAL          
 ACTION:READ                


 OPENED Cl.ic_strt_layer8.txt
 FILE TYPE:OPEN/CLOSE   UNIT 2029   STATUS:OLD                 
 FORMAT:FORMATTED              ACCESS:SEQUENTIAL          
 ACTION:READ                


 OPENED Cl.ic_strt_layer9.txt
 FILE TYPE:OPEN/CLOSE   UNIT 2030   STATUS:OLD                 
 FORMAT:FORMATTED              ACCESS:SEQUENTIAL          
 ACTION:READ                


 OPENED Cl.ic_strt_layer10.txt
 FILE TYPE:OPEN/CLOSE   UNIT 2031   STATUS:OLD                 
 FORMAT:FORMATTED              ACCESS:SEQUENTIAL          
 ACTION:READ                

 END PROCESSING GRIDDATA

 MST -- MOBILE STORAGE AND TRANSFER PACKAGE, VERSION 1, 7/29/2020 INPUT READ FROM UNIT 1433


 # File generated by Flopy version 3.5.0.dev0 on 07/12/2024 at 15:45:50.
 PROCESSING MOBILE STORAGE AND TRANSFER OPTIONS
 END OF MOBILE STORAGE AND TRANSFER OPTIONS
 PROCESSING GRIDDATA

 OPENED Cl.mst_porosity.txt
 FILE TYPE:OPEN/CLOSE   UNIT 2032   STATUS:OLD                 
 FORMAT:FORMATTED              ACCESS:SEQUENTIAL          
 ACTION:READ                

 END PROCESSING GRIDDATA

 SSM -- SOURCE-SINK MIXING PACKAGE, VERSION 1, 8/25/2017 INPUT READ FROM UNIT 1466


 # File generated by Flopy version 3.5.0.dev0 on 07/12/2024 at 15:45:50.
 PROCESSING SSM OPTIONS
    SSM FLOW INFORMATION WILL BE PRINTED TO LISTING FILE WHENEVER ICBCFL IS NOT ZERO.
    CELL-BY-CELL FLOW INFORMATION WILL BE SAVED TO BINARY FILE WHENEVER ICBCFL IS NOT ZERO.
 END OF SSM OPTIONS

 OPENED Cl.ssm_sources.txt
 FILE TYPE:OPEN/CLOSE   UNIT 2033   STATUS:OLD                 
 FORMAT:FORMATTED              ACCESS:SEQUENTIAL          
 ACTION:READ                

 PROCESSING SOURCES
 AUX SOURCE DETECTED.
    USING AUX COLUMN 7 IN PACKAGE CHD
 END PROCESSING SOURCES
 OPTIONAL FILEINPUT BLOCK NOT FOUND.  CONTINUING.
      THE LAST TIME STEP WILL BE PRINTED
      THE LAST TIME STEP WILL BE PRINTED
 # File generated by Flopy version 3.5.0.dev0 on 07/12/2024 at 15:45:50.

 PROCESSING OC OPTIONS

    BUDGET INFORMATION WILL BE WRITTEN TO:
      UNIT NUMBER: 2034
      FILE NAME: Cl.cbb

 OPENED Cl.cbb
 FILE TYPE:DATA(BINARY)   UNIT 2034   STATUS:REPLACE             
 FORMAT:UNFORMATTED            ACCESS:STREAM              
 ACTION:READWRITE           

    CONCENTRATION INFORMATION WILL BE WRITTEN TO:
      UNIT NUMBER: 2035
      FILE NAME: Cl.ucn

 OPENED Cl.ucn
 FILE TYPE:DATA(BINARY)   UNIT 2035   STATUS:REPLACE             
 FORMAT:UNFORMATTED            ACCESS:STREAM              
 ACTION:READWRITE           

 END OF OC OPTIONS

start timestep kper="1" kstp="1" mode="normal"


 BEGIN READING OUTPUT CONTROL FOR STRESS PERIOD 1
      ALL TIME STEPS WILL BE SAVED
      ALL TIME STEPS WILL BE SAVED
      ALL TIME STEPS WILL BE PRINTED
      ALL TIME STEPS WILL BE PRINTED

 END READING OUTPUT CONTROL FOR STRESS PERIOD 1

 OPENED Cl.cnc_stress_period_data_1.txt
 FILE TYPE:OPEN/CLOSE   UNIT 2140   STATUS:OLD                 
 FORMAT:FORMATTED              ACCESS:SEQUENTIAL          
 ACTION:READ                

 UBDSV06 SAVING  SOURCE-SINK MIX IN MODEL CL               PACKAGE CL              CONNECTED TO MODEL CL               PACKAGE SSM              ON UNIT   2034 AT TIME STEP      1, STRESS PERIOD      1
 UBDSV06 SAVING              CNC IN MODEL CL               PACKAGE CL              CONNECTED TO MODEL CL               PACKAGE CNC              ON UNIT   2034 AT TIME STEP      1, STRESS PERIOD      1

 SSM PACKAGE (SSM) FLOW RATES   PERIOD      1   STEP        1
 ------------------------------------------------------------------------------------------------
   NUMBER   CELLID                   BOUND Q        SSM CONC          RATE         PACKAGE NAME  
 ------------------------------------------------------------------------------------------------
     1      (1,1,1)               2.08333361E-02  0.11864812      2.47183616E-03       CHD       
     2      (2,1,1)               2.08333361E-02  0.11864812      2.47183616E-03       CHD       
     3      (3,1,1)               2.08333361E-02  0.11864812      2.47183617E-03       CHD       
     4      (4,1,1)               0.0000000       0.0000000       0.0000000            CHD       
     5      (5,1,1)               0.0000000       0.0000000       0.0000000            CHD       
     6      (6,1,1)               0.0000000       0.0000000       0.0000000            CHD       
     7      (7,1,1)               0.0000000       0.0000000       0.0000000            CHD       
     8      (8,1,1)               0.0000000       0.0000000       0.0000000            CHD       
     9      (9,1,1)               0.0000000       0.0000000       0.0000000            CHD       
     10     (10,1,1)              0.0000000       0.0000000       0.0000000            CHD       
     11     (1,1,25)             -2.08333402E-02  1.0269543      -2.13948883E-02       CHD       
     12     (2,1,25)             -2.08333402E-02  1.0269543      -2.13948883E-02       CHD       
     13     (3,1,25)             -2.08333402E-02  1.0269543      -2.13948883E-02       CHD       
     14     (4,1,25)             -2.08333403E-02  1.0269543      -2.13948884E-02       CHD       
     15     (5,1,25)             -2.08333403E-02  1.0269543      -2.13948884E-02       CHD       
     16     (6,1,25)             -2.08333403E-02  1.0269543      -2.13948884E-02       CHD       
     17     (7,1,25)             -2.08333403E-02  1.0269543      -2.13948884E-02       CHD       
     18     (8,1,25)             -2.08333403E-02  1.0269543      -2.13948884E-02       CHD       
     19     (9,1,25)             -2.08333403E-02  1.0269543      -2.13948884E-02       CHD       
     20     (10,1,25)            -2.08333403E-02  1.0269543      -2.13948884E-02       CHD       
 ------------------------------------------------------------------------------------------------




 CNC PACKAGE (CNC) FLOW RATES   PERIOD      1   STEP        1
 -----------------------------------------------
   NUMBER   CELLID                    RATE      
 -----------------------------------------------
     1      (4,1,1)               3.47839540E-02
     2      (5,1,1)               2.14172602E-02
     3      (6,1,1)               2.14039532E-02
     4      (7,1,1)               2.13985744E-02
     5      (8,1,1)               2.13964017E-02
     6      (9,1,1)               2.13955390E-02
     7      (10,1,1)              2.13952378E-02
 -----------------------------------------------



1
  CONCENTRATION IN LAYER   1 AT END OF TIME STEP   1 IN STRESS PERIOD    1
  ---------------------------------------------------------------------------

                1               2               3               4               5               6               7               8               9              10
               11              12              13              14              15              16              17              18              19              20
               21              22              23              24              25
 ................................................................................................................................................................
   1  .9278394809     1.009795565     1.025340742     1.026811388     1.026941405     1.026953111     1.026954193     1.026954288     1.026954300     1.026954304    
      1.026954304     1.026954301     1.026954298     1.026954296     1.026954297     1.026954297     1.026954297     1.026954296     1.026954296     1.026954296    
      1.026954297     1.026954298     1.026954299     1.026954300     1.026954300    
1
  CONCENTRATION IN LAYER   2 AT END OF TIME STEP   1 IN STRESS PERIOD    1
  ---------------------------------------------------------------------------

                1               2               3               4               5               6               7               8               9              10
               11              12              13              14              15              16              17              18              19              20
               21              22              23              24              25
 ................................................................................................................................................................
   1  .9370312121     1.011917749     1.025518515     1.026823648     1.026942289     1.026953182     1.026954197     1.026954286     1.026954300     1.026954307    
      1.026954307     1.026954302     1.026954296     1.026954294     1.026954295     1.026954296     1.026954295     1.026954294     1.026954293     1.026954294    
      1.026954295     1.026954296     1.026954298     1.026954299     1.026954300    
1
  CONCENTRATION IN LAYER   3 AT END OF TIME STEP   1 IN STRESS PERIOD    1
  ---------------------------------------------------------------------------

                1               2               3               4               5               6               7               8               9              10
               11              12              13              14              15              16              17              18              19              20
               21              22              23              24              25
 ................................................................................................................................................................
   1  .9629525301     1.016405337     1.025828236     1.026844432     1.026943843     1.026953308     1.026954205     1.026954284     1.026954301     1.026954312    
      1.026954312     1.026954303     1.026954293     1.026954289     1.026954291     1.026954293     1.026954292     1.026954290     1.026954289     1.026954290    
      1.026954292     1.026954294     1.026954296     1.026954299     1.026954300    
1
  CONCENTRATION IN LAYER   4 AT END OF TIME STEP   1 IN STRESS PERIOD    1
  ---------------------------------------------------------------------------

                1               2               3               4               5               6               7               8               9              10
               11              12              13              14              15              16              17              18              19              20
               21              22              23              24              25
 ................................................................................................................................................................
   1  1.026954300     1.022702191     1.026139740     1.026867528     1.026945744     1.026953468     1.026954216     1.026954282     1.026954302     1.026954317    
      1.026954316     1.026954304     1.026954290     1.026954286     1.026954289     1.026954291     1.026954290     1.026954287     1.026954286     1.026954287    
      1.026954289     1.026954293     1.026954295     1.026954299     1.026954300    
1
  CONCENTRATION IN LAYER   5 AT END OF TIME STEP   1 IN STRESS PERIOD    1
  ---------------------------------------------------------------------------

                1               2               3               4               5               6               7               8               9              10
               11              12              13              14              15              16              17              18              19              20
               21              22              23              24              25
 ................................................................................................................................................................
   1  1.026954300     1.025235820     1.026477053     1.026892640     1.026947750     1.026953638     1.026954228     1.026954281     1.026954302     1.026954320    
      1.026954319     1.026954304     1.026954289     1.026954284     1.026954288     1.026954291     1.026954289     1.026954286     1.026954284     1.026954285    
      1.026954288     1.026954292     1.026954295     1.026954298     1.026954300    
1
  CONCENTRATION IN LAYER   6 AT END OF TIME STEP   1 IN STRESS PERIOD    1
  ---------------------------------------------------------------------------

                1               2               3               4               5               6               7               8               9              10
               11              12              13              14              15              16              17              18              19              20
               21              22              23              24              25
 ................................................................................................................................................................
   1  1.026954300     1.026257804     1.026700518     1.026914110     1.026949586     1.026953798     1.026954240     1.026954282     1.026954303     1.026954321    
      1.026954320     1.026954305     1.026954288     1.026954284     1.026954288     1.026954291     1.026954289     1.026954285     1.026954283     1.026954284    
      1.026954288     1.026954291     1.026954294     1.026954298     1.026954300    
1
  CONCENTRATION IN LAYER   7 AT END OF TIME STEP   1 IN STRESS PERIOD    1
  ---------------------------------------------------------------------------

                1               2               3               4               5               6               7               8               9              10
               11              12              13              14              15              16              17              18              19              20
               21              22              23              24              25
 ................................................................................................................................................................
   1  1.026954300     1.026670894     1.026826437     1.026929683     1.026951068     1.026953933     1.026954252     1.026954283     1.026954303     1.026954320    
      1.026954319     1.026954305     1.026954289     1.026954285     1.026954288     1.026954291     1.026954290     1.026954286     1.026954284     1.026954285    
      1.026954288     1.026954291     1.026954294     1.026954298     1.026954300    
1
  CONCENTRATION IN LAYER   8 AT END OF TIME STEP   1 IN STRESS PERIOD    1
  ---------------------------------------------------------------------------

                1               2               3               4               5               6               7               8               9              10
               11              12              13              14              15              16              17              18              19              20
               21              22              23              24              25
 ................................................................................................................................................................
   1  1.026954300     1.026837759     1.026891456     1.026939708     1.026952133     1.026954035     1.026954262     1.026954285     1.026954302     1.026954318    
      1.026954317     1.026954304     1.026954290     1.026954286     1.026954289     1.026954292     1.026954291     1.026954287     1.026954285     1.026954286    
      1.026954289     1.026954292     1.026954295     1.026954298     1.026954300    
1
  CONCENTRATION IN LAYER   9 AT END OF TIME STEP   1 IN STRESS PERIOD    1
  ---------------------------------------------------------------------------

                1               2               3               4               5               6               7               8               9              10
               11              12              13              14              15              16              17              18              19              20
               21              22              23              24              25
 ................................................................................................................................................................
   1  1.026954300     1.026904013     1.026922493     1.026945425     1.026952800     1.026954101     1.026954269     1.026954288     1.026954302     1.026954315    
      1.026954314     1.026954304     1.026954292     1.026954289     1.026954291     1.026954293     1.026954292     1.026954290     1.026954288     1.026954289    
      1.026954291     1.026954293     1.026954296     1.026954299     1.026954300    
1
  CONCENTRATION IN LAYER  10 AT END OF TIME STEP   1 IN STRESS PERIOD    1
  ---------------------------------------------------------------------------

                1               2               3               4               5               6               7               8               9              10
               11              12              13              14              15              16              17              18              19              20
               21              22              23              24              25
 ................................................................................................................................................................
   1  1.026954300     1.026927147     1.026934744     1.026947967     1.026953112     1.026954131     1.026954274     1.026954292     1.026954301     1.026954308    
      1.026954308     1.026954302     1.026954296     1.026954293     1.026954295     1.026954296     1.026954295     1.026954294     1.026954293     1.026954293    
      1.026954294     1.026954296     1.026954297     1.026954299     1.026954300    

 CONCENTRATION WILL BE SAVED ON UNIT 2035 AT END OF TIME STEP    1, STRESS PERIOD    1


  MASS BUDGET FOR ENTIRE MODEL AT END OF TIME STEP    1, STRESS PERIOD   1
  ---------------------------------------------------------------------------------------------------

     CUMULATIVE MASS      M       RATES FOR THIS TIME STEP      M/T          PACKAGE NAME    
     ------------------                 ------------------------                     ----------------

           IN:                                      IN:
           ---                                      ---
     STORAGE-AQUEOUS =           0.4334       STORAGE-AQUEOUS =       4.3343E-02     MST                              
                 CHD =       7.4155E-02                   CHD =       7.4155E-03     SSM_CHD                          
                 CNC =           1.6319                   CNC =           0.1632     CNC                              

            TOTAL IN =           2.1395              TOTAL IN =           0.2139

          OUT:                                     OUT:
          ----                                     ----
     STORAGE-AQUEOUS =       4.5952E-07       STORAGE-AQUEOUS =       4.5952E-08     MST                              
                 CHD =           2.1395                   CHD =           0.2139     SSM_CHD                          
                 CNC =           0.0000                   CNC =           0.0000     CNC                              

           TOTAL OUT =           2.1395             TOTAL OUT =           0.2139

            IN - OUT =      -2.5906E-09              IN - OUT =      -2.5906E-10

 PERCENT DISCREPANCY =          -0.00     PERCENT DISCREPANCY =          -0.00




         TIME SUMMARY AT END OF TIME STEP    1 IN STRESS PERIOD    1
                    SECONDS     MINUTES      HOURS       DAYS        YEARS
                    -----------------------------------------------------------
   TIME STEP LENGTH 8.64000E+05  14400.      240.00      10.000     2.73785E-02
 STRESS PERIOD TIME 8.64000E+05  14400.      240.00      10.000     2.73785E-02
         TOTAL TIME 8.64000E+05  14400.      240.00      10.000     2.73785E-02


end timestep


start timestep kper="1" kstp="2" mode="normal"

 UBDSV06 SAVING  SOURCE-SINK MIX IN MODEL CL               PACKAGE CL              CONNECTED TO MODEL CL               PACKAGE SSM              ON UNIT   2034 AT TIME STEP      2, STRESS PERIOD      1
 UBDSV06 SAVING              CNC IN MODEL CL               PACKAGE CL              CONNECTED TO MODEL CL               PACKAGE CNC              ON UNIT   2034 AT TIME STEP      2, STRESS PERIOD      1

 SSM PACKAGE (SSM) FLOW RATES   PERIOD      1   STEP        2
 ------------------------------------------------------------------------------------------------
   NUMBER   CELLID                   BOUND Q        SSM CONC          RATE         PACKAGE NAME  
 ------------------------------------------------------------------------------------------------
     1      (1,1,1)               2.08333319E-02  0.11864812      2.47183566E-03       CHD       
     2      (2,1,1)               2.08333319E-02  0.11864812      2.47183566E-03       CHD       
     3      (3,1,1)               2.08333319E-02  0.11864812      2.47183566E-03       CHD       
     4      (4,1,1)               0.0000000       0.0000000       0.0000000            CHD       
     5      (5,1,1)               0.0000000       0.0000000       0.0000000            CHD       
     6      (6,1,1)               0.0000000       0.0000000       0.0000000            CHD       
     7      (7,1,1)               0.0000000       0.0000000       0.0000000            CHD       
     8      (8,1,1)               0.0000000       0.0000000       0.0000000            CHD       
     9      (9,1,1)               0.0000000       0.0000000       0.0000000            CHD       
     10     (10,1,1)              0.0000000       0.0000000       0.0000000            CHD       
     11     (1,1,25)             -2.08333370E-02  1.0269543      -2.13948850E-02       CHD       
     12     (2,1,25)             -2.08333370E-02  1.0269543      -2.13948850E-02       CHD       
     13     (3,1,25)             -2.08333370E-02  1.0269543      -2.13948850E-02       CHD       
     14     (4,1,25)             -2.08333370E-02  1.0269543      -2.13948850E-02       CHD       
     15     (5,1,25)             -2.08333370E-02  1.0269543      -2.13948850E-02       CHD       
     16     (6,1,25)             -2.08333370E-02  1.0269543      -2.13948850E-02       CHD       
     17     (7,1,25)             -2.08333370E-02  1.0269543      -2.13948850E-02       CHD       
     18     (8,1,25)             -2.08333370E-02  1.0269543      -2.13948850E-02       CHD       
     19     (9,1,25)             -2.08333370E-02  1.0269543      -2.13948850E-02       CHD       
     20     (10,1,25)            -2.08333370E-02  1.0269543      -2.13948850E-02       CHD       
 ------------------------------------------------------------------------------------------------




 CNC PACKAGE (CNC) FLOW RATES   PERIOD      1   STEP        2
 -----------------------------------------------
   NUMBER   CELLID                    RATE      
 -----------------------------------------------
     1      (4,1,1)               4.24431852E-02
     2      (5,1,1)               2.14625168E-02
     3      (6,1,1)               2.14253243E-02
     4      (7,1,1)               2.14085203E-02
     5      (8,1,1)               2.14010246E-02
     6      (9,1,1)               2.13977845E-02
     7      (10,1,1)              2.13965808E-02
 -----------------------------------------------



1
  CONCENTRATION IN LAYER   1 AT END OF TIME STEP   2 IN STRESS PERIOD    1
  ---------------------------------------------------------------------------

                1               2               3               4               5               6               7               8               9              10
               11              12              13              14              15              16              17              18              19              20
               21              22              23              24              25
 ................................................................................................................................................................
   1  .8585494582     .9861042258     1.021562531     1.026333460     1.026885324     1.026946766     1.026953492     1.026954218     1.026954295     1.026954303    
      1.026954303     1.026954300     1.026954297     1.026954295     1.026954294     1.026954294     1.026954293     1.026954292     1.026954292     1.026954293    
      1.026954294     1.026954295     1.026954297     1.026954299     1.026954300    
1
  CONCENTRATION IN LAYER   2 AT END OF TIME STEP   2 IN STRESS PERIOD    1
  ---------------------------------------------------------------------------

                1               2               3               4               5               6               7               8               9              10
               11              12              13              14              15              16              17              18              19              20
               21              22              23              24              25
 ................................................................................................................................................................
   1  .8780045205     .9914696425     1.022133438     1.026381968     1.026889538     1.026947150     1.026953530     1.026954224     1.026954297     1.026954303    
      1.026954301     1.026954299     1.026954297     1.026954294     1.026954293     1.026954291     1.026954290     1.026954290     1.026954290     1.026954291    
      1.026954292     1.026954294     1.026954296     1.026954299     1.026954300    
1
  CONCENTRATION IN LAYER   3 AT END OF TIME STEP   2 IN STRESS PERIOD    1
  ---------------------------------------------------------------------------

                1               2               3               4               5               6               7               8               9              10
               11              12              13              14              15              16              17              18              19              20
               21              22              23              24              25
 ................................................................................................................................................................
   1  .9266377075     1.002029493     1.023106143     1.026464464     1.026897022     1.026947851     1.026953599     1.026954235     1.026954300     1.026954303    
      1.026954300     1.026954298     1.026954296     1.026954293     1.026954290     1.026954287     1.026954286     1.026954285     1.026954286     1.026954287    
      1.026954289     1.026954292     1.026954294     1.026954298     1.026954300    
1
  CONCENTRATION IN LAYER   4 AT END OF TIME STEP   2 IN STRESS PERIOD    1
  ---------------------------------------------------------------------------

                1               2               3               4               5               6               7               8               9              10
               11              12              13              14              15              16              17              18              19              20
               21              22              23              24              25
 ................................................................................................................................................................
   1  1.026954300     1.015509807     1.024107218     1.026558925     1.026906390     1.026948761     1.026953689     1.026954247     1.026954304     1.026954303    
      1.026954298     1.026954297     1.026954295     1.026954292     1.026954288     1.026954284     1.026954282     1.026954282     1.026954282     1.026954284    
      1.026954286     1.026954289     1.026954293     1.026954298     1.026954300    
1
  CONCENTRATION IN LAYER   5 AT END OF TIME STEP   2 IN STRESS PERIOD    1
  ---------------------------------------------------------------------------

                1               2               3               4               5               6               7               8               9              10
               11              12              13              14              15              16              17              18              19              20
               21              22              23              24              25
 ................................................................................................................................................................
   1  1.026954300     1.021759776     1.025177057     1.026662350     1.026916476     1.026949757     1.026953788     1.026954258     1.026954306     1.026954303    
      1.026954298     1.026954296     1.026954295     1.026954292     1.026954287     1.026954282     1.026954280     1.026954279     1.026954280     1.026954282    
      1.026954285     1.026954288     1.026954292     1.026954297     1.026954300    
1
  CONCENTRATION IN LAYER   6 AT END OF TIME STEP   2 IN STRESS PERIOD    1
  ---------------------------------------------------------------------------

                1               2               3               4               5               6               7               8               9              10
               11              12              13              14              15              16              17              18              19              20
               21              22              23              24              25
 ................................................................................................................................................................
   1  1.026954300     1.024616157     1.025939306     1.026754671     1.026926013     1.026950725     1.026953884     1.026954268     1.026954307     1.026954304    
      1.026954298     1.026954296     1.026954295     1.026954292     1.026954286     1.026954282     1.026954279     1.026954279     1.026954280     1.026954282    
      1.026954284     1.026954288     1.026954291     1.026954297     1.026954299    
1
  CONCENTRATION IN LAYER   7 AT END OF TIME STEP   2 IN STRESS PERIOD    1
  ---------------------------------------------------------------------------

                1               2               3               4               5               6               7               8               9              10
               11              12              13              14              15              16              17              18              19              20
               21              22              23              24              25
 ................................................................................................................................................................
   1  1.026954300     1.025906707     1.026404521     1.026825353     1.026934016     1.026951569     1.026953969     1.026954275     1.026954308     1.026954304    
      1.026954298     1.026954297     1.026954295     1.026954292     1.026954287     1.026954282     1.026954280     1.026954280     1.026954281     1.026954282    
      1.026954285     1.026954288     1.026954291     1.026954297     1.026954299    
1
  CONCENTRATION IN LAYER   8 AT END OF TIME STEP   2 IN STRESS PERIOD    1
  ---------------------------------------------------------------------------

                1               2               3               4               5               6               7               8               9              10
               11              12              13              14              15              16              17              18              19              20
               21              22              23              24              25
 ................................................................................................................................................................
   1  1.026954300     1.026482376     1.026663606     1.026873356     1.026940006     1.026952229     1.026954037     1.026954281     1.026954307     1.026954304    
      1.026954299     1.026954297     1.026954296     1.026954293     1.026954288     1.026954284     1.026954282     1.026954281     1.026954282     1.026954284    
      1.026954286     1.026954289     1.026954292     1.026954297     1.026954299    
1
  CONCENTRATION IN LAYER   9 AT END OF TIME STEP   2 IN STRESS PERIOD    1
  ---------------------------------------------------------------------------

                1               2               3               4               5               6               7               8               9              10
               11              12              13              14              15              16              17              18              19              20
               21              22              23              24              25
 ................................................................................................................................................................
   1  1.026954300     1.026731214     1.026795639     1.026902030     1.026943898     1.026952675     1.026954083     1.026954282     1.026954305     1.026954304    
      1.026954300     1.026954298     1.026954296     1.026954293     1.026954290     1.026954287     1.026954285     1.026954284     1.026954285     1.026954286    
      1.026954288     1.026954290     1.026954293     1.026954297     1.026954300    
1
  CONCENTRATION IN LAYER  10 AT END OF TIME STEP   2 IN STRESS PERIOD    1
  ---------------------------------------------------------------------------

                1               2               3               4               5               6               7               8               9              10
               11              12              13              14              15              16              17              18              19              20
               21              22              23              24              25
 ................................................................................................................................................................
   1  1.026954300     1.026823654     1.026850260     1.026915208     1.026945792     1.026952898     1.026954102     1.026954278     1.026954302     1.026954305    
      1.026954303     1.026954300     1.026954296     1.026954293     1.026954292     1.026954290     1.026954289     1.026954288     1.026954288     1.026954289    
      1.026954290     1.026954292     1.026954295     1.026954298     1.026954300    

 CONCENTRATION WILL BE SAVED ON UNIT 2035 AT END OF TIME STEP    2, STRESS PERIOD    1


  MASS BUDGET FOR ENTIRE MODEL AT END OF TIME STEP    2, STRESS PERIOD   1
  ---------------------------------------------------------------------------------------------------

     CUMULATIVE MASS      M       RATES FOR THIS TIME STEP      M/T          PACKAGE NAME    
     ------------------                 ------------------------                     ----------------

           IN:                                      IN:
           ---                                      ---
     STORAGE-AQUEOUS =           0.7894       STORAGE-AQUEOUS =       3.5598E-02     MST                              
                 CHD =           0.1483                   CHD =       7.4155E-03     SSM_CHD                          
                 CNC =           3.3413                   CNC =           0.1709     CNC                              

            TOTAL IN =           4.2790              TOTAL IN =           0.2139

          OUT:                                     OUT:
          ----                                     ----
     STORAGE-AQUEOUS =       6.1023E-07       STORAGE-AQUEOUS =       1.5071E-08     MST                              
                 CHD =           4.2790                   CHD =           0.2139     SSM_CHD                          
                 CNC =           0.0000                   CNC =           0.0000     CNC                              

           TOTAL OUT =           4.2790             TOTAL OUT =           0.2139

            IN - OUT =      -4.9596E-09              IN - OUT =      -2.3690E-10

 PERCENT DISCREPANCY =          -0.00     PERCENT DISCREPANCY =          -0.00




         TIME SUMMARY AT END OF TIME STEP    2 IN STRESS PERIOD    1
                    SECONDS     MINUTES      HOURS       DAYS        YEARS
                    -----------------------------------------------------------
   TIME STEP LENGTH 8.64000E+05  14400.      240.00      10.000     2.73785E-02
 STRESS PERIOD TIME 1.72800E+06  28800.      480.00      20.000     5.47570E-02
         TOTAL TIME 1.72800E+06  28800.      480.00      20.000     5.47570E-02


end timestep


start timestep kper="1" kstp="3" mode="normal"

 UBDSV06 SAVING  SOURCE-SINK MIX IN MODEL CL               PACKAGE CL              CONNECTED TO MODEL CL               PACKAGE SSM              ON UNIT   2034 AT TIME STEP      3, STRESS PERIOD      1
 UBDSV06 SAVING              CNC IN MODEL CL               PACKAGE CL              CONNECTED TO MODEL CL               PACKAGE CNC              ON UNIT   2034 AT TIME STEP      3, STRESS PERIOD      1

 SSM PACKAGE (SSM) FLOW RATES   PERIOD      1   STEP        3
 ------------------------------------------------------------------------------------------------
   NUMBER   CELLID                   BOUND Q        SSM CONC          RATE         PACKAGE NAME  
 ------------------------------------------------------------------------------------------------
     1      (1,1,1)               2.08333325E-02  0.11864812      2.47183574E-03       CHD       
     2      (2,1,1)               2.08333325E-02  0.11864812      2.47183574E-03       CHD       
     3      (3,1,1)               2.08333325E-02  0.11864812      2.47183574E-03       CHD       
     4      (4,1,1)               0.0000000       0.0000000       0.0000000            CHD       
     5      (5,1,1)               0.0000000       0.0000000       0.0000000            CHD       
     6      (6,1,1)               0.0000000       0.0000000       0.0000000            CHD       
     7      (7,1,1)               0.0000000       0.0000000       0.0000000            CHD       
     8      (8,1,1)               0.0000000       0.0000000       0.0000000            CHD       
     9      (9,1,1)               0.0000000       0.0000000       0.0000000            CHD       
     10     (10,1,1)              0.0000000       0.0000000       0.0000000            CHD       
     11     (1,1,25)             -2.08333362E-02  1.0269543      -2.13948842E-02       CHD       
     12     (2,1,25)             -2.08333362E-02  1.0269543      -2.13948842E-02       CHD       
     13     (3,1,25)             -2.08333362E-02  1.0269543      -2.13948842E-02       CHD       
     14     (4,1,25)             -2.08333362E-02  1.0269543      -2.13948842E-02       CHD       
     15     (5,1,25)             -2.08333362E-02  1.0269543      -2.13948842E-02       CHD       
     16     (6,1,25)             -2.08333362E-02  1.0269543      -2.13948842E-02       CHD       
     17     (7,1,25)             -2.08333362E-02  1.0269543      -2.13948842E-02       CHD       
     18     (8,1,25)             -2.08333362E-02  1.0269543      -2.13948842E-02       CHD       
     19     (9,1,25)             -2.08333362E-02  1.0269543      -2.13948842E-02       CHD       
     20     (10,1,25)            -2.08333362E-02  1.0269543      -2.13948842E-02       CHD       
 ------------------------------------------------------------------------------------------------




 CNC PACKAGE (CNC) FLOW RATES   PERIOD      1   STEP        3
 -----------------------------------------------
   NUMBER   CELLID                    RATE      
 -----------------------------------------------
     1      (4,1,1)               4.73081565E-02
     2      (5,1,1)               2.15233106E-02
     3      (6,1,1)               2.14573683E-02
     4      (7,1,1)               2.14250553E-02
     5      (8,1,1)               2.14095168E-02
     6      (9,1,1)               2.14023459E-02
     7      (10,1,1)              2.13995522E-02
 -----------------------------------------------



1
  CONCENTRATION IN LAYER   1 AT END OF TIME STEP   3 IN STRESS PERIOD    1
  ---------------------------------------------------------------------------

                1               2               3               4               5               6               7               8               9              10
               11              12              13              14              15              16              17              18              19              20
               21              22              23              24              25
 ................................................................................................................................................................
   1  .8109039445     .9616911934     1.015762526     1.025346626     1.026739911     1.026927003     1.026950943     1.026953902     1.026954258     1.026954299    
      1.026954302     1.026954300     1.026954297     1.026954294     1.026954292     1.026954290     1.026954289     1.026954289     1.026954289     1.026954290    
      1.026954291     1.026954293     1.026954295     1.026954298     1.026954299    
1
  CONCENTRATION IN LAYER   2 AT END OF TIME STEP   3 IN STRESS PERIOD    1
  ---------------------------------------------------------------------------

                1               2               3               4               5               6               7               8               9              10
               11              12              13              14              15              16              17              18              19              20
               21              22              23              24              25
 ................................................................................................................................................................
   1  .8386875376     .9703890344     1.016886699     1.025461343     1.026751745     1.026928259     1.026951078     1.026953917     1.026954260     1.026954299    
      1.026954301     1.026954299     1.026954296     1.026954292     1.026954290     1.026954288     1.026954287     1.026954286     1.026954287     1.026954287    
      1.026954289     1.026954292     1.026954294     1.026954298     1.026954299    
1
  CONCENTRATION IN LAYER   3 AT END OF TIME STEP   3 IN STRESS PERIOD    1
  ---------------------------------------------------------------------------

                1               2               3               4               5               6               7               8               9              10
               11              12              13              14              15              16              17              18              19              20
               21              22              23              24              25
 ................................................................................................................................................................
   1  .9038227123     .9868525848     1.018792498     1.025658329     1.026772996     1.026930574     1.026951329     1.026953945     1.026954263     1.026954299    
      1.026954301     1.026954298     1.026954294     1.026954290     1.026954287     1.026954285     1.026954283     1.026954283     1.026954283     1.026954284    
      1.026954286     1.026954289     1.026954293     1.026954297     1.026954299    
1
  CONCENTRATION IN LAYER   4 AT END OF TIME STEP   3 IN STRESS PERIOD    1
  ---------------------------------------------------------------------------

                1               2               3               4               5               6               7               8               9              10
               11              12              13              14              15              16              17              18              19              20
               21              22              23              24              25
 ................................................................................................................................................................
   1  1.026954300     1.006920021     1.020819102     1.025890413     1.026800083     1.026933616     1.026951662     1.026953982     1.026954268     1.026954300    
      1.026954301     1.026954298     1.026954293     1.026954288     1.026954284     1.026954281     1.026954280     1.026954279     1.026954280     1.026954281    
      1.026954284     1.026954287     1.026954291     1.026954297     1.026954299    
1
  CONCENTRATION IN LAYER   5 AT END OF TIME STEP   3 IN STRESS PERIOD    1
  ---------------------------------------------------------------------------

                1               2               3               4               5               6               7               8               9              10
               11              12              13              14              15              16              17              18              19              20
               21              22              23              24              25
 ................................................................................................................................................................
   1  1.026954300     1.017090862     1.022949293     1.026146067     1.026829709     1.026936994     1.026952037     1.026954023     1.026954273     1.026954301    
      1.026954301     1.026954298     1.026954292     1.026954287     1.026954282     1.026954280     1.026954278     1.026954277     1.026954278     1.026954279    
      1.026954282     1.026954286     1.026954290     1.026954296     1.026954299    
1
  CONCENTRATION IN LAYER   6 AT END OF TIME STEP   3 IN STRESS PERIOD    1
  ---------------------------------------------------------------------------

                1               2               3               4               5               6               7               8               9              10
               11              12              13              14              15              16              17              18              19              20
               21              22              23              24              25
 ................................................................................................................................................................
   1  1.026954300     1.022155232     1.024541443     1.026381030     1.026858357     1.026940331     1.026952413     1.026954065     1.026954277     1.026954301    
      1.026954301     1.026954298     1.026954292     1.026954287     1.026954282     1.026954279     1.026954277     1.026954277     1.026954277     1.026954278    
      1.026954281     1.026954285     1.026954290     1.026954296     1.026954299    
1
  CONCENTRATION IN LAYER   7 AT END OF TIME STEP   3 IN STRESS PERIOD    1
  ---------------------------------------------------------------------------

                1               2               3               4               5               6               7               8               9              10
               11              12              13              14              15              16              17              18              19              20
               21              22              23              24              25
 ................................................................................................................................................................
   1  1.026954300     1.024636873     1.025570889     1.026568027     1.026883074     1.026943304     1.026952753     1.026954102     1.026954281     1.026954302    
      1.026954301     1.026954298     1.026954293     1.026954287     1.026954283     1.026954280     1.026954278     1.026954277     1.026954277     1.026954279    
      1.026954282     1.026954286     1.026954290     1.026954296     1.026954299    
1
  CONCENTRATION IN LAYER   8 AT END OF TIME STEP   3 IN STRESS PERIOD    1
  ---------------------------------------------------------------------------

                1               2               3               4               5               6               7               8               9              10
               11              12              13              14              15              16              17              18              19              20
               21              22              23              24              25
 ................................................................................................................................................................
   1  1.026954300     1.025830228     1.026177818     1.026700159     1.026902101     1.026945676     1.026953030     1.026954132     1.026954284     1.026954302    
      1.026954302     1.026954299     1.026954293     1.026954288     1.026954284     1.026954281     1.026954279     1.026954279     1.026954279     1.026954280    
      1.026954283     1.026954286     1.026954290     1.026954296     1.026954299    
1
  CONCENTRATION IN LAYER   9 AT END OF TIME STEP   3 IN STRESS PERIOD    1
  ---------------------------------------------------------------------------

                1               2               3               4               5               6               7               8               9              10
               11              12              13              14              15              16              17              18              19              20
               21              22              23              24              25
 ................................................................................................................................................................
   1  1.026954300     1.026380953     1.026503006     1.026781853     1.026914766     1.026947306     1.026953222     1.026954152     1.026954285     1.026954302    
      1.026954302     1.026954299     1.026954294     1.026954289     1.026954286     1.026954283     1.026954282     1.026954281     1.026954281     1.026954282    
      1.026954285     1.026954288     1.026954291     1.026954296     1.026954299    
1
  CONCENTRATION IN LAYER  10 AT END OF TIME STEP   3 IN STRESS PERIOD    1
  ---------------------------------------------------------------------------

                1               2               3               4               5               6               7               8               9              10
               11              12              13              14              15              16              17              18              19              20
               21              22              23              24              25
 ................................................................................................................................................................
   1  1.026954300     1.026595506     1.026642439     1.026820304     1.026921028     1.026948131     1.026953320     1.026954162     1.026954286     1.026954303    
      1.026954302     1.026954300     1.026954295     1.026954291     1.026954288     1.026954286     1.026954285     1.026954284     1.026954284     1.026954285    
      1.026954287     1.026954290     1.026954293     1.026954297     1.026954299    

 CONCENTRATION WILL BE SAVED ON UNIT 2035 AT END OF TIME STEP    3, STRESS PERIOD    1


  MASS BUDGET FOR ENTIRE MODEL AT END OF TIME STEP    3, STRESS PERIOD   1
  ---------------------------------------------------------------------------------------------------

     CUMULATIVE MASS      M       RATES FOR THIS TIME STEP      M/T          PACKAGE NAME    
     ------------------                 ------------------------                     ----------------

           IN:                                      IN:
           ---                                      ---
     STORAGE-AQUEOUS =           1.0955       STORAGE-AQUEOUS =       3.0608E-02     MST                              
                 CHD =           0.2225                   CHD =       7.4155E-03     SSM_CHD                          
                 CNC =           5.1005                   CNC =           0.1759     CNC                              

            TOTAL IN =           6.4185              TOTAL IN =           0.2139

          OUT:                                     OUT:
          ----                                     ----
     STORAGE-AQUEOUS =       6.4820E-07       STORAGE-AQUEOUS =       3.7973E-09     MST                              
                 CHD =           6.4185                   CHD =           0.2139     SSM_CHD                          
                 CNC =           0.0000                   CNC =           0.0000     CNC                              

           TOTAL OUT =           6.4185             TOTAL OUT =           0.2139

            IN - OUT =      -6.5652E-09              IN - OUT =      -1.6057E-10

 PERCENT DISCREPANCY =          -0.00     PERCENT DISCREPANCY =          -0.00




         TIME SUMMARY AT END OF TIME STEP    3 IN STRESS PERIOD    1
                    SECONDS     MINUTES      HOURS       DAYS        YEARS
                    -----------------------------------------------------------
   TIME STEP LENGTH 8.64000E+05  14400.      240.00      10.000     2.73785E-02
 STRESS PERIOD TIME 2.59200E+06  43200.      720.00      30.000     8.21355E-02
         TOTAL TIME 2.59200E+06  43200.      720.00      30.000     8.21355E-02


end timestep


start timestep kper="1" kstp="4" mode="normal"

 UBDSV06 SAVING  SOURCE-SINK MIX IN MODEL CL               PACKAGE CL              CONNECTED TO MODEL CL               PACKAGE SSM              ON UNIT   2034 AT TIME STEP      4, STRESS PERIOD      1
 UBDSV06 SAVING              CNC IN MODEL CL               PACKAGE CL              CONNECTED TO MODEL CL               PACKAGE CNC              ON UNIT   2034 AT TIME STEP      4, STRESS PERIOD      1

 SSM PACKAGE (SSM) FLOW RATES   PERIOD      1   STEP        4
 ------------------------------------------------------------------------------------------------
   NUMBER   CELLID                   BOUND Q        SSM CONC          RATE         PACKAGE NAME  
 ------------------------------------------------------------------------------------------------
     1      (1,1,1)               2.08333321E-02  0.11864812      2.47183569E-03       CHD       
     2      (2,1,1)               2.08333321E-02  0.11864812      2.47183569E-03       CHD       
     3      (3,1,1)               2.08333321E-02  0.11864812      2.47183569E-03       CHD       
     4      (4,1,1)               0.0000000       0.0000000       0.0000000            CHD       
     5      (5,1,1)               0.0000000       0.0000000       0.0000000            CHD       
     6      (6,1,1)               0.0000000       0.0000000       0.0000000            CHD       
     7      (7,1,1)               0.0000000       0.0000000       0.0000000            CHD       
     8      (8,1,1)               0.0000000       0.0000000       0.0000000            CHD       
     9      (9,1,1)               0.0000000       0.0000000       0.0000000            CHD       
     10     (10,1,1)              0.0000000       0.0000000       0.0000000            CHD       
     11     (1,1,25)             -2.08333356E-02  1.0269543      -2.13948836E-02       CHD       
     12     (2,1,25)             -2.08333356E-02  1.0269543      -2.13948836E-02       CHD       
     13     (3,1,25)             -2.08333356E-02  1.0269543      -2.13948836E-02       CHD       
     14     (4,1,25)             -2.08333356E-02  1.0269543      -2.13948836E-02       CHD       
     15     (5,1,25)             -2.08333356E-02  1.0269543      -2.13948836E-02       CHD       
     16     (6,1,25)             -2.08333356E-02  1.0269543      -2.13948836E-02       CHD       
     17     (7,1,25)             -2.08333356E-02  1.0269543      -2.13948836E-02       CHD       
     18     (8,1,25)             -2.08333356E-02  1.0269543      -2.13948836E-02       CHD       
     19     (9,1,25)             -2.08333356E-02  1.0269543      -2.13948836E-02       CHD       
     20     (10,1,25)            -2.08333356E-02  1.0269543      -2.13948836E-02       CHD       
 ------------------------------------------------------------------------------------------------




 CNC PACKAGE (CNC) FLOW RATES   PERIOD      1   STEP        4
 -----------------------------------------------
   NUMBER   CELLID                    RATE      
 -----------------------------------------------
     1      (4,1,1)               5.05748067E-02
     2      (5,1,1)               2.15917415E-02
     3      (6,1,1)               2.14965717E-02
     4      (7,1,1)               2.14470087E-02
     5      (8,1,1)               2.14217556E-02
     6      (9,1,1)               2.14094930E-02
     7      (10,1,1)              2.14045366E-02
 -----------------------------------------------



1
  CONCENTRATION IN LAYER   1 AT END OF TIME STEP   4 IN STRESS PERIOD    1
  ---------------------------------------------------------------------------

                1               2               3               4               5               6               7               8               9              10
               11              12              13              14              15              16              17              18              19              20
               21              22              23              24              25
 ................................................................................................................................................................
   1  .7781668589     .9392635142     1.008421086     1.023733284     1.026449070     1.026880384     1.026944020     1.026952928     1.026954126     1.026954282    
      1.026954299     1.026954299     1.026954296     1.026954292     1.026954290     1.026954288     1.026954286     1.026954286     1.026954286     1.026954287    
      1.026954288     1.026954291     1.026954294     1.026954297     1.026954299    
1
  CONCENTRATION IN LAYER   2 AT END OF TIME STEP   4 IN STRESS PERIOD    1
  ---------------------------------------------------------------------------

                1               2               3               4               5               6               7               8               9              10
               11              12              13              14              15              16              17              18              19              20
               21              22              23              24              25
 ................................................................................................................................................................
   1  .8120508690     .9508865417     1.010183776     1.023944709     1.026474495     1.026883481     1.026944393     1.026952973     1.026954132     1.026954283    
      1.026954298     1.026954298     1.026954294     1.026954291     1.026954288     1.026954286     1.026954284     1.026954284     1.026954284     1.026954285    
      1.026954287     1.026954290     1.026954293     1.026954297     1.026954299    
1
  CONCENTRATION IN LAYER   3 AT END OF TIME STEP   4 IN STRESS PERIOD    1
  ---------------------------------------------------------------------------

                1               2               3               4               5               6               7               8               9              10
               11              12              13              14              15              16              17              18              19              20
               21              22              23              24              25
 ................................................................................................................................................................
   1  .8886980780     .9724136804     1.013179658     1.024311851     1.026520609     1.026889231     1.026945092     1.026953056     1.026954142     1.026954283    
      1.026954298     1.026954296     1.026954293     1.026954289     1.026954285     1.026954283     1.026954281     1.026954280     1.026954281     1.026954282    
      1.026954285     1.026954288     1.026954292     1.026954296     1.026954299    
1
  CONCENTRATION IN LAYER   4 AT END OF TIME STEP   4 IN STRESS PERIOD    1
  ---------------------------------------------------------------------------

                1               2               3               4               5               6               7               8               9              10
               11              12              13              14              15              16              17              18              19              20
               21              22              23              24              25
 ................................................................................................................................................................
   1  1.026954300     .9980353554     1.016465263     1.024755021     1.026580255     1.026896863     1.026946029     1.026953169     1.026954156     1.026954285    
      1.026954297     1.026954295     1.026954291     1.026954287     1.026954283     1.026954280     1.026954278     1.026954277     1.026954278     1.026954279    
      1.026954282     1.026954286     1.026954290     1.026954296     1.026954299    
1
  CONCENTRATION IN LAYER   5 AT END OF TIME STEP   4 IN STRESS PERIOD    1
  ---------------------------------------------------------------------------

                1               2               3               4               5               6               7               8               9              10
               11              12              13              14              15              16              17              18              19              20
               21              22              23              24              25
 ................................................................................................................................................................
   1  1.026954300     1.011835337     1.019873611     1.025246048     1.026646366     1.026905442     1.026947097     1.026953297     1.026954172     1.026954287    
      1.026954297     1.026954295     1.026954291     1.026954286     1.026954282     1.026954278     1.026954276     1.026954275     1.026954276     1.026954278    
      1.026954281     1.026954285     1.026954289     1.026954295     1.026954299    
1
  CONCENTRATION IN LAYER   6 AT END OF TIME STEP   4 IN STRESS PERIOD    1
  ---------------------------------------------------------------------------

                1               2               3               4               5               6               7               8               9              10
               11              12              13              14              15              16              17              18              19              20
               21              22              23              24              25
 ................................................................................................................................................................
   1  1.026954300     1.019144380     1.022507560     1.025706834     1.026711411     1.026914033     1.026948179     1.026953429     1.026954187     1.026954289    
      1.026954297     1.026954295     1.026954291     1.026954286     1.026954281     1.026954278     1.026954275     1.026954274     1.026954275     1.026954277    
      1.026954280     1.026954284     1.026954289     1.026954295     1.026954299    
1
  CONCENTRATION IN LAYER   7 AT END OF TIME STEP   4 IN STRESS PERIOD    1
  ---------------------------------------------------------------------------

                1               2               3               4               5               6               7               8               9              10
               11              12              13              14              15              16              17              18              19              20
               21              22              23              24              25
 ................................................................................................................................................................
   1  1.026954300     1.022950818     1.024285261     1.026084148     1.026768702     1.026921797     1.026949171     1.026953550     1.026954201     1.026954290    
      1.026954298     1.026954295     1.026954291     1.026954286     1.026954282     1.026954278     1.026954276     1.026954275     1.026954275     1.026954277    
      1.026954280     1.026954284     1.026954289     1.026954295     1.026954299    
1
  CONCENTRATION IN LAYER   8 AT END OF TIME STEP   4 IN STRESS PERIOD    1
  ---------------------------------------------------------------------------

                1               2               3               4               5               6               7               8               9              10
               11              12              13              14              15              16              17              18              19              20
               21              22              23              24              25
 ................................................................................................................................................................
   1  1.026954300     1.024890259     1.025380050     1.026358800     1.026813737     1.026928084     1.026949986     1.026953650     1.026954213     1.026954292    
      1.026954298     1.026954296     1.026954292     1.026954287     1.026954283     1.026954279     1.026954277     1.026954276     1.026954277     1.026954278    
      1.026954281     1.026954285     1.026954289     1.026954295     1.026954299    
1
  CONCENTRATION IN LAYER   9 AT END OF TIME STEP   4 IN STRESS PERIOD    1
  ---------------------------------------------------------------------------

                1               2               3               4               5               6               7               8               9              10
               11              12              13              14              15              16              17              18              19              20
               21              22              23              24              25
 ................................................................................................................................................................
   1  1.026954300     1.025832022     1.025989801     1.026533084     1.026844255     1.026932462     1.026950561     1.026953720     1.026954221     1.026954293    
      1.026954299     1.026954297     1.026954293     1.026954288     1.026954284     1.026954281     1.026954279     1.026954278     1.026954279     1.026954280    
      1.026954282     1.026954286     1.026954290     1.026954295     1.026954299    
1
  CONCENTRATION IN LAYER  10 AT END OF TIME STEP   4 IN STRESS PERIOD    1
  ---------------------------------------------------------------------------

                1               2               3               4               5               6               7               8               9              10
               11              12              13              14              15              16              17              18              19              20
               21              22              23              24              25
 ................................................................................................................................................................
   1  1.026954300     1.026212671     1.026258591     1.026616588     1.026859531     1.026934696     1.026950857     1.026953756     1.026954224     1.026954293    
      1.026954300     1.026954298     1.026954294     1.026954290     1.026954286     1.026954283     1.026954282     1.026954281     1.026954281     1.026954282    
      1.026954284     1.026954287     1.026954291     1.026954295     1.026954299    

 CONCENTRATION WILL BE SAVED ON UNIT 2035 AT END OF TIME STEP    4, STRESS PERIOD    1


  MASS BUDGET FOR ENTIRE MODEL AT END OF TIME STEP    4, STRESS PERIOD   1
  ---------------------------------------------------------------------------------------------------

     CUMULATIVE MASS      M       RATES FOR THIS TIME STEP      M/T          PACKAGE NAME    
     ------------------                 ------------------------                     ----------------

           IN:                                      IN:
           ---                                      ---
     STORAGE-AQUEOUS =           1.3674       STORAGE-AQUEOUS =       2.7187E-02     MST                              
                 CHD =           0.2966                   CHD =       7.4155E-03     SSM_CHD                          
                 CNC =           6.8940                   CNC =           0.1793     CNC                              

            TOTAL IN =           8.5580              TOTAL IN =           0.2139

          OUT:                                     OUT:
          ----                                     ----
     STORAGE-AQUEOUS =       6.4820E-07       STORAGE-AQUEOUS =           0.0000     MST                              
                 CHD =           8.5580                   CHD =           0.2139     SSM_CHD                          
                 CNC =           0.0000                   CNC =           0.0000     CNC                              

           TOTAL OUT =           8.5580             TOTAL OUT =           0.2139

            IN - OUT =      -9.3944E-09              IN - OUT =      -2.8291E-10

 PERCENT DISCREPANCY =          -0.00     PERCENT DISCREPANCY =          -0.00




         TIME SUMMARY AT END OF TIME STEP    4 IN STRESS PERIOD    1
                    SECONDS     MINUTES      HOURS       DAYS        YEARS
                    -----------------------------------------------------------
   TIME STEP LENGTH 8.64000E+05  14400.      240.00      10.000     2.73785E-02
 STRESS PERIOD TIME 3.45600E+06  57600.      960.00      40.000     0.10951    
         TOTAL TIME 3.45600E+06  57600.      960.00      40.000     0.10951    


end timestep


start timestep kper="1" kstp="5" mode="normal"

 UBDSV06 SAVING  SOURCE-SINK MIX IN MODEL CL               PACKAGE CL              CONNECTED TO MODEL CL               PACKAGE SSM              ON UNIT   2034 AT TIME STEP      5, STRESS PERIOD      1
 UBDSV06 SAVING              CNC IN MODEL CL               PACKAGE CL              CONNECTED TO MODEL CL               PACKAGE CNC              ON UNIT   2034 AT TIME STEP      5, STRESS PERIOD      1

 SSM PACKAGE (SSM) FLOW RATES   PERIOD      1   STEP        5
 ------------------------------------------------------------------------------------------------
   NUMBER   CELLID                   BOUND Q        SSM CONC          RATE         PACKAGE NAME  
 ------------------------------------------------------------------------------------------------
     1      (1,1,1)               2.08333321E-02  0.11864812      2.47183569E-03       CHD       
     2      (2,1,1)               2.08333321E-02  0.11864812      2.47183569E-03       CHD       
     3      (3,1,1)               2.08333321E-02  0.11864812      2.47183569E-03       CHD       
     4      (4,1,1)               0.0000000       0.0000000       0.0000000            CHD       
     5      (5,1,1)               0.0000000       0.0000000       0.0000000            CHD       
     6      (6,1,1)               0.0000000       0.0000000       0.0000000            CHD       
     7      (7,1,1)               0.0000000       0.0000000       0.0000000            CHD       
     8      (8,1,1)               0.0000000       0.0000000       0.0000000            CHD       
     9      (9,1,1)               0.0000000       0.0000000       0.0000000            CHD       
     10     (10,1,1)              0.0000000       0.0000000       0.0000000            CHD       
     11     (1,1,25)             -2.08333353E-02  1.0269543      -2.13948833E-02       CHD       
[...]
               21              22              23              24              25
 ................................................................................................................................................................
   1  1.026954300     1.011072284     .9880424354     .9702677786     .9597735796     .9542189663     .9513949048     .9499780584     .9492713545     .9489231353    
      .9487606295     .9487103890     .9487260940     .9487921208     .9489243582     .9491404849     .9494675370     .9499418569     .9506078765     .9515162492    
      .9527207180     .9542720680     .9562043091     .9584946929     .9609244759    

 CONCENTRATION WILL BE SAVED ON UNIT 2035 AT END OF TIME STEP  199, STRESS PERIOD    1


  MASS BUDGET FOR ENTIRE MODEL AT END OF TIME STEP  199, STRESS PERIOD   1
  ---------------------------------------------------------------------------------------------------

     CUMULATIVE MASS      M       RATES FOR THIS TIME STEP      M/T          PACKAGE NAME    
     ------------------                 ------------------------                     ----------------

           IN:                                      IN:
           ---                                      ---
     STORAGE-AQUEOUS =          26.7875       STORAGE-AQUEOUS =       2.5766E-03     MST                              
                 CHD =          14.7569                   CHD =       7.4155E-03     SSM_CHD                          
                 CNC =         377.2984                   CNC =           0.1902     CNC                              

            TOTAL IN =         418.8428              TOTAL IN =           0.2002

          OUT:                                     OUT:
          ----                                     ----
     STORAGE-AQUEOUS =       6.4820E-07       STORAGE-AQUEOUS =           0.0000     MST                              
                 CHD =         418.8428                   CHD =           0.2002     SSM_CHD                          
                 CNC =           0.0000                   CNC =           0.0000     CNC                              

           TOTAL OUT =         418.8428             TOTAL OUT =           0.2002

            IN - OUT =      -1.7689E-07              IN - OUT =       8.1472E-09

 PERCENT DISCREPANCY =          -0.00     PERCENT DISCREPANCY =           0.00




         TIME SUMMARY AT END OF TIME STEP  199 IN STRESS PERIOD    1
                    SECONDS     MINUTES      HOURS       DAYS        YEARS
                    -----------------------------------------------------------
   TIME STEP LENGTH 8.64000E+05  14400.      240.00      10.000     2.73785E-02
 STRESS PERIOD TIME 1.71936E+08 2.86560E+06  47760.      1990.0      5.4483    
         TOTAL TIME 1.71936E+08 2.86560E+06  47760.      1990.0      5.4483    


end timestep


start timestep kper="1" kstp="200" mode="normal"

 UBDSV06 SAVING  SOURCE-SINK MIX IN MODEL CL               PACKAGE CL              CONNECTED TO MODEL CL               PACKAGE SSM              ON UNIT   2034 AT TIME STEP    200, STRESS PERIOD      1
 UBDSV06 SAVING              CNC IN MODEL CL               PACKAGE CL              CONNECTED TO MODEL CL               PACKAGE CNC              ON UNIT   2034 AT TIME STEP    200, STRESS PERIOD      1

 SSM PACKAGE (SSM) FLOW RATES   PERIOD      1   STEP      200
 ------------------------------------------------------------------------------------------------
   NUMBER   CELLID                   BOUND Q        SSM CONC          RATE         PACKAGE NAME  
 ------------------------------------------------------------------------------------------------
     1      (1,1,1)               2.08333330E-02  0.11864812      2.47183579E-03       CHD       
     2      (2,1,1)               2.08333330E-02  0.11864812      2.47183579E-03       CHD       
     3      (3,1,1)               2.08333330E-02  0.11864812      2.47183579E-03       CHD       
     4      (4,1,1)               0.0000000       0.0000000       0.0000000            CHD       
     5      (5,1,1)               0.0000000       0.0000000       0.0000000            CHD       
     6      (6,1,1)               0.0000000       0.0000000       0.0000000            CHD       
     7      (7,1,1)               0.0000000       0.0000000       0.0000000            CHD       
     8      (8,1,1)               0.0000000       0.0000000       0.0000000            CHD       
     9      (9,1,1)               0.0000000       0.0000000       0.0000000            CHD       
     10     (10,1,1)              0.0000000       0.0000000       0.0000000            CHD       
     11     (1,1,25)             -2.08333337E-02  0.96052300     -2.00108962E-02       CHD       
     12     (2,1,25)             -2.08333337E-02  0.96052301     -2.00108963E-02       CHD       
     13     (3,1,25)             -2.08333337E-02  0.96052301     -2.00108964E-02       CHD       
     14     (4,1,25)             -2.08333337E-02  0.96052302     -2.00108965E-02       CHD       
     15     (5,1,25)             -2.08333337E-02  0.96052302     -2.00108966E-02       CHD       
     16     (6,1,25)             -2.08333337E-02  0.96052302     -2.00108966E-02       CHD       
     17     (7,1,25)             -2.08333337E-02  0.96052303     -2.00108967E-02       CHD       
     18     (8,1,25)             -2.08333337E-02  0.96052303     -2.00108968E-02       CHD       
     19     (9,1,25)             -2.08333337E-02  0.96052304     -2.00108970E-02       CHD       
     20     (10,1,25)            -2.08333337E-02  0.96052305     -2.00108972E-02       CHD       
 ------------------------------------------------------------------------------------------------




 CNC PACKAGE (CNC) FLOW RATES   PERIOD      1   STEP      200
 -----------------------------------------------
   NUMBER   CELLID                    RATE      
 -----------------------------------------------
     1      (4,1,1)               5.93289189E-02
     2      (5,1,1)               2.22092383E-02
     3      (6,1,1)               2.19538755E-02
     4      (7,1,1)               2.17900389E-02
     5      (8,1,1)               2.16879412E-02
     6      (9,1,1)               2.16287800E-02
     7      (10,1,1)              2.16016780E-02
 -----------------------------------------------



1
  CONCENTRATION IN LAYER   1 AT END OF TIME STEP 200 IN STRESS PERIOD    1
  ---------------------------------------------------------------------------

                1               2               3               4               5               6               7               8               9              10
               11              12              13              14              15              16              17              18              19              20
               21              22              23              24              25
 ................................................................................................................................................................
   1  .6957361126     .8283966381     .8977193649     .9250941096     .9371203694     .9428745282     .9457192800     .9471394305     .9478516160     .9482129940    
      .9484058134     .9485258919     .9486249943     .9487357534     .9488855020     .9491028540     .9494206427     .9498774597     .9505181829     .9513931862    
      .9525558157     .9540567970     .9559307878     .9581570896     .9605230049    
1
  CONCENTRATION IN LAYER   2 AT END OF TIME STEP 200 IN STRESS PERIOD    1
  ---------------------------------------------------------------------------

                1               2               3               4               5               6               7               8               9              10
               11              12              13              14              15              16              17              18              19              20
               21              22              23              24              25
 ................................................................................................................................................................
   1  .7451536290     .8501743485     .9046828448     .9276639103     .9382686430     .9434329339     .9459971200     .9472783070     .9479210732     .9482477200    
      .9484232111     .9485347262     .9486294659     .9487379476     .9488865326     .9491033208     .9494208500     .9498775516     .9505182239     .9513932048    
      .9525558240     .9540568005     .9559307882     .9581570930     .9605230085    
1
  CONCENTRATION IN LAYER   3 AT END OF TIME STEP 200 IN STRESS PERIOD    1
  ---------------------------------------------------------------------------

                1               2               3               4               5               6               7               8               9              10
               11              12              13              14              15              16              17              18              19              20
               21              22              23              24              25
 ................................................................................................................................................................
   1  .8506579013     .8891995292     .9170958115     .9324144075     .9404390852     .9444943042     .9465256199     .9475424814     .9480531918     .9483137700    
      .9484562990     .9485515448     .9486379747     .9487421177     .9488884891     .9491042067     .9494212438     .9498777263     .9505183020     .9513932401    
      .9525558401     .9540568077     .9559307909     .9581570952     .9605230124    
1
  CONCENTRATION IN LAYER   4 AT END OF TIME STEP 200 IN STRESS PERIOD    1
  ---------------------------------------------------------------------------

                1               2               3               4               5               6               7               8               9              10
               11              12              13              14              15              16              17              18              19              20
               21              22              23              24              25
 ................................................................................................................................................................
   1  1.026954300     .9343625119     .9324550598     .9386903840     .9434028652     .9459536275     .9472530446     .9479061170     .9482350450     .9484046718    
      .9485018247     .9485747309     .9486497013     .9487478503     .9488911733     .9491054216     .9494217844     .9498779666     .9505184097     .9513932888    
      .9525558623     .9540568177     .9559307951     .9581570975     .9605230163    
1
  CONCENTRATION IN LAYER   5 AT END OF TIME STEP 200 IN STRESS PERIOD    1
  ---------------------------------------------------------------------------

                1               2               3               4               5               6               7               8               9              10
               11              12              13              14              15              16              17              18              19              20
               21              22              23              24              25
 ................................................................................................................................................................
   1  1.026954300     .9644116496     .9473015340     .9459534684     .9468700932     .9476668135     .9481081482     .9483336392     .9484488370     .9485115134    
      .9485552951     .9486020616     .9486635141     .9487545832     .9488943150     .9491068429     .9494224178     .9498782487     .9505185363     .9513933461    
      .9525558884     .9540568296     .9559308002     .9581571000     .9605230201    
1
  CONCENTRATION IN LAYER   6 AT END OF TIME STEP 200 IN STRESS PERIOD    1
  ---------------------------------------------------------------------------

                1               2               3               4               5               6               7               8               9              10
               11              12              13              14              15              16              17              18              19              20
               21              22              23              24              25
 ................................................................................................................................................................
   1  1.026954300     .9840235177     .9606703781     .9530651628     .9504790971     .9494676471     .9490073630     .9487832129     .9486736403     .9486237903    
      .9486113589     .9486309680     .9486781239     .9487616695     .9488976044     .9491083280     .9494230810     .9498785450     .9505186695     .9513934066    
      .9525559160     .9540568422     .9559308057     .9581571025     .9605230240    
1
  CONCENTRATION IN LAYER   7 AT END OF TIME STEP 200 IN STRESS PERIOD    1
  ---------------------------------------------------------------------------

                1               2               3               4               5               6               7               8               9              10
               11              12              13              14              15              16              17              18              19              20
               21              22              23              24              25
 ................................................................................................................................................................
   1  1.026954300     .9966061683     .9716585070     .9594833448     .9538513530     .9511739496     .9498623145     .9492108338     .9488874642     .9487306574    
      .9486638873     .9486588689     .9486922958     .9487684542     .9489007171     .9491097300     .9494237088     .9498788264     .9505187963     .9513934641    
      .9525559423     .9540568541     .9559308109     .9581571046     .9605230284    
1
  CONCENTRATION IN LAYER   8 AT END OF TIME STEP 200 IN STRESS PERIOD    1
  ---------------------------------------------------------------------------

                1               2               3               4               5               6               7               8               9              10
               11              12              13              14              15              16              17              18              19              20
               21              22              23              24              25
 ................................................................................................................................................................
   1  1.026954300     1.004447267     .9799045895     .9647081965     .9566793450     .9526205731     .9505893150     .9495746277     .9490693685     .9488215781    
      .9487088956     .9486815471     .9487049845     .9487743356     .9489033532     .9491109127     .9494242402     .9498790654     .9505189043     .9513935131    
      .9525559647     .9540568643     .9559308152     .9581571060     .9605230336    
1
  CONCENTRATION IN LAYER   9 AT END OF TIME STEP 200 IN STRESS PERIOD    1
  ---------------------------------------------------------------------------

                1               2               3               4               5               6               7               8               9              10
               11              12              13              14              15              16              17              18              19              20
               21              22              23              24              25
 ................................................................................................................................................................
   1  1.026954300     1.008990850     .9853477792     .9683786271     .9587120570     .9536688032     .9511173275     .9498389546     .9492015381     .9488876410    
      .9487416819     .9486976532     .9487144314     .9487786745     .9489052636     .9491117658     .9494246247     .9498792389     .9505189827     .9513935488    
      .9525559810     .9540568717     .9559308182     .9581571061     .9605230400    
1
  CONCENTRATION IN LAYER  10 AT END OF TIME STEP 200 IN STRESS PERIOD    1
  ---------------------------------------------------------------------------

                1               2               3               4               5               6               7               8               9              10
               11              12              13              14              15              16              17              18              19              20
               21              22              23              24              25
 ................................................................................................................................................................
   1  1.026954300     1.011072284     .9880424348     .9702677763     .9597735725     .9542189465     .9513948519     .9499779246     .9492710273     .9489223739    
      .9487589374     .9487060279     .9487194555     .9487809750     .9489062671     .9491122124     .9494248263     .9498793302     .9505190240     .9513935676    
      .9525559896     .9540568756     .9559308193     .9581571045     .9605230484    

 CONCENTRATION WILL BE SAVED ON UNIT 2035 AT END OF TIME STEP  200, STRESS PERIOD    1


  MASS BUDGET FOR ENTIRE MODEL AT END OF TIME STEP  200, STRESS PERIOD   1
  ---------------------------------------------------------------------------------------------------

     CUMULATIVE MASS      M       RATES FOR THIS TIME STEP      M/T          PACKAGE NAME    
     ------------------                 ------------------------                     ----------------

           IN:                                      IN:
           ---                                      ---
     STORAGE-AQUEOUS =          26.8125       STORAGE-AQUEOUS =       2.4930E-03     MST                              
                 CHD =          14.8310                   CHD =       7.4155E-03     SSM_CHD                          
                 CNC =         379.2004                   CNC =           0.1902     CNC                              

            TOTAL IN =         420.8439              TOTAL IN =           0.2001

          OUT:                                     OUT:
          ----                                     ----
     STORAGE-AQUEOUS =       6.4820E-07       STORAGE-AQUEOUS =           0.0000     MST                              
                 CHD =         420.8439                   CHD =           0.2001     SSM_CHD                          
                 CNC =           0.0000                   CNC =           0.0000     CNC                              

           TOTAL OUT =         420.8439             TOTAL OUT =           0.2001

            IN - OUT =      -9.6525E-08              IN - OUT =       8.0363E-09

 PERCENT DISCREPANCY =          -0.00     PERCENT DISCREPANCY =           0.00




         TIME SUMMARY AT END OF TIME STEP  200 IN STRESS PERIOD    1
                    SECONDS     MINUTES      HOURS       DAYS        YEARS
                    -----------------------------------------------------------
   TIME STEP LENGTH 8.64000E+05  14400.      240.00      10.000     2.73785E-02
 STRESS PERIOD TIME 1.72800E+08 2.88000E+06  48000.      2000.0      5.4757    
         TOTAL TIME 1.72800E+08 2.88000E+06  48000.      2000.0      5.4757    


end timestep

