                                   MODFLOW 6
                U.S. GEOLOGICAL SURVEY MODULAR HYDROLOGIC MODEL
                       GROUNDWATER TRANSPORT MODEL (GWT)
                VERSION 6.5.0.dev0+prt (preliminary) 10/07/2023
                               ***DEVELOP MODE***

   MODFLOW 6 compiled Oct 07 2023 02:19:02 with Intel(R) Fortran Intel(R) 64
   Compiler Classic for applications running on Intel(R) 64, Version 2021.7.0
                             Build 20220726_000000

This software is preliminary or provisional and is subject to 
revision. It is being provided to meet the need for timely best 
science. The software has not received final approval by the U.S. 
Geological Survey (USGS). No warranty, expressed or implied, is made 
by the USGS or the U.S. Government as to the functionality of the 
software and related material nor shall the fact of release 
constitute any such warranty. The software is provided on the 
condition that neither the USGS nor the U.S. Government shall be held 
liable for any damages resulting from the authorized or unauthorized 
use of the software.


As a work of the United States Government, this USGS product is 
in the public domain within the United States. You can copy, 
modify, distribute, and perform the work, even for commercial 
purposes, all without asking permission. Additionally, USGS 
waives copyright and related rights in the work worldwide 
through CC0 1.0 Universal Public Domain Dedication 
(https://creativecommons.org/publicdomain/zero/1.0/).

The following GNU Lesser General Public License (LGPL) libraries
are used in this USGS product:

    SPARSKIT version 2.0
      ilut, luson, and qsplit 
      (https://www-users.cse.umn.edu/~saad/software/SPARSKIT/)

    RCM - Reverse Cuthill McKee Ordering
      (https://people.math.sc.edu/Burkardt/f_src/rcm/rcm.html)

    BLAS - Basic Linear Algebra Subprograms Level 1
      (https://people.math.sc.edu/Burkardt/f_src/blas1_d/blas1_d.html)

    SPARSEKIT - Sparse Matrix Utility Package
      amux, dperm, dvperm, rperm, and cperm
      (https://people.sc.fsu.edu/~jburkardt/f77_src/sparsekit/sparsekit.html)

The following BSD-3 License libraries are used in this USGS product:

    Modern Fortran DAG Library
      Copyright (c) 2018, Jacob Williams
      All rights reserved.
      (https://github.com/jacobwilliams/daglib)

MODFLOW 6 compiler options: /Isrc\libmf6core.a.p /Isrc /I..\src
/Isrc\libmf6_external.a.p /MTd /nologo /warn:general /warn:truncated_source
/stand:f08 /Zi /traceback /O2 /fpe:0 /heap-arrays:0 /traceback /fpp
/Qdiag-disable:7416 /Qdiag-disable:7025 /Qdiag-disable:5268
/Fdsrc\libmf6core.a.p\Utilities_compilerversion.F90.pdb
/module:src\libmf6core.a.p
/Fosrc/libmf6core.a.p/Utilities_compilerversion.F90.obj /c

System command used to initiate simulation:
c:\Users\portega\anaconda3\envs\mf6rtm\python.exe -m ipykernel_launcher --f=c:\Users\portega\AppData\Roaming\jupyter\runtime\kernel-v2-51408na7dKTn0i5X.json

MODFLOW was compiled using uniform precision.

Real Variables
  KIND: 8
  TINY (smallest non-zero value):    2.225074-308
  HUGE (largest value):    1.797693+308
  PRECISION: 15
  SIZE IN BITS: 64

Integer Variables
  KIND: 4
  HUGE (largest value): 2147483647
  SIZE IN BITS: 32

Long Integer Variables
  KIND: 8
  HUGE (largest value): 9223372036854775807
  SIZE IN BITS: 64

Logical Variables
  KIND: 4
  SIZE IN BITS: 32
 
 NAMEFILE OPTIONS:
 END NAMEFILE OPTIONS:

 DIS -- STRUCTURED GRID DISCRETIZATION PACKAGE, VERSION 2 : 3/27/2014 - INPUT READ FROM MEMPATH: __INPUT__/CL/DIS                                  


 DSP-- DISPERSION PACKAGE, VERSION 1, 1/24/2018 INPUT READ FROM MEMPATH: __INPUT__/CL/DSP                                  


 Setting Discretization Options
    Model length unit [0=UND, 1=FEET, 2=METERS, 3=CENTIMETERS] set as 2
 End Setting Discretization Options

 Setting Discretization Dimensions
    NLAY = 10
    NROW = 1
    NCOL = 25
 End Setting Discretization Dimensions

 Setting Discretization Griddata
    DELR set from input file
    DELC set from input file
    TOP set from input file
    BOTM set from input file
    IDOMAIN set from input file
 End Setting Discretization Griddata


 FMI -- FLOW MODEL INTERFACE,' VERSION 2, 8/17/2023
  FLOWS PROVIDED BY A GWF MODEL IN THIS SIMULATION

 ADV-- ADVECTION PACKAGE, VERSION 1, 8/25/2017 INPUT READ FROM UNIT 12935


 # File generated by Flopy version 3.5.0.dev0 on 07/04/2024 at 16:27:57.
 PROCESSING ADVECTION OPTIONS
    ADVECTION WEIGHTING SCHEME HAS BEEN SET TO: TVD
 END OF ADVECTION OPTIONS
 Setting DSP Options
    XT3D formulation [0=INACTIVE, 1=ACTIVE, 3=ACTIVE RHS] set to: 0
 End Setting DSP Options

 Setting DSP Griddata
    ALH set from input file
    ATH1 set from input file
    ATV set from input file
 End Setting DSP Griddata


 CNC   -- CNC PACKAGE, VERSION 8, 2/22/2014 INPUT READ FROM UNIT 12969
 # File generated by Flopy version 3.5.0.dev0 on 07/04/2024 at 16:27:57.

 PROCESSING CNC OPTIONS
    CNC FLOWS WILL BE PRINTED TO LISTING FILE.
    FLOWS WILL BE SAVED TO BUDGET FILE SPECIFIED IN OUTPUT CONTROL
 END OF CNC OPTIONS

 PROCESSING CNC DIMENSIONS
    MAXBOUND =       7
 END OF CNC DIMENSIONS

 IC -- INITIAL CONDITIONS PACKAGE, VERSION 8, 3/28/2015 INPUT READ FROM UNIT 12933
 # File generated by Flopy version 3.5.0.dev0 on 07/04/2024 at 16:27:57.
 PROCESSING GRIDDATA

 OPENED Cl.ic_strt_layer1.txt
 FILE TYPE:OPEN/CLOSE   UNIT ****   STATUS:OLD                 
 FORMAT:FORMATTED              ACCESS:SEQUENTIAL          
 ACTION:READ                


 OPENED Cl.ic_strt_layer2.txt
 FILE TYPE:OPEN/CLOSE   UNIT ****   STATUS:OLD                 
 FORMAT:FORMATTED              ACCESS:SEQUENTIAL          
 ACTION:READ                


 OPENED Cl.ic_strt_layer3.txt
 FILE TYPE:OPEN/CLOSE   UNIT ****   STATUS:OLD                 
 FORMAT:FORMATTED              ACCESS:SEQUENTIAL          
 ACTION:READ                


 OPENED Cl.ic_strt_layer4.txt
 FILE TYPE:OPEN/CLOSE   UNIT ****   STATUS:OLD                 
 FORMAT:FORMATTED              ACCESS:SEQUENTIAL          
 ACTION:READ                


 OPENED Cl.ic_strt_layer5.txt
 FILE TYPE:OPEN/CLOSE   UNIT ****   STATUS:OLD                 
 FORMAT:FORMATTED              ACCESS:SEQUENTIAL          
 ACTION:READ                


 OPENED Cl.ic_strt_layer6.txt
 FILE TYPE:OPEN/CLOSE   UNIT ****   STATUS:OLD                 
 FORMAT:FORMATTED              ACCESS:SEQUENTIAL          
 ACTION:READ                


 OPENED Cl.ic_strt_layer7.txt
 FILE TYPE:OPEN/CLOSE   UNIT ****   STATUS:OLD                 
 FORMAT:FORMATTED              ACCESS:SEQUENTIAL          
 ACTION:READ                


 OPENED Cl.ic_strt_layer8.txt
 FILE TYPE:OPEN/CLOSE   UNIT ****   STATUS:OLD                 
 FORMAT:FORMATTED              ACCESS:SEQUENTIAL          
 ACTION:READ                


 OPENED Cl.ic_strt_layer9.txt
 FILE TYPE:OPEN/CLOSE   UNIT ****   STATUS:OLD                 
 FORMAT:FORMATTED              ACCESS:SEQUENTIAL          
 ACTION:READ                


 OPENED Cl.ic_strt_layer10.txt
 FILE TYPE:OPEN/CLOSE   UNIT ****   STATUS:OLD                 
 FORMAT:FORMATTED              ACCESS:SEQUENTIAL          
 ACTION:READ                

 END PROCESSING GRIDDATA

 MST -- MOBILE STORAGE AND TRANSFER PACKAGE, VERSION 1, 7/29/2020 INPUT READ FROM UNIT 12934


 # File generated by Flopy version 3.5.0.dev0 on 07/04/2024 at 16:27:57.
 PROCESSING MOBILE STORAGE AND TRANSFER OPTIONS
 END OF MOBILE STORAGE AND TRANSFER OPTIONS
 PROCESSING GRIDDATA

 OPENED Cl.mst_porosity.txt
 FILE TYPE:OPEN/CLOSE   UNIT ****   STATUS:OLD                 
 FORMAT:FORMATTED              ACCESS:SEQUENTIAL          
 ACTION:READ                

 END PROCESSING GRIDDATA

 SSM -- SOURCE-SINK MIXING PACKAGE, VERSION 1, 8/25/2017 INPUT READ FROM UNIT 12967


 # File generated by Flopy version 3.5.0.dev0 on 07/04/2024 at 16:27:57.
 PROCESSING SSM OPTIONS
    SSM FLOW INFORMATION WILL BE PRINTED TO LISTING FILE WHENEVER ICBCFL IS NOT ZERO.
    CELL-BY-CELL FLOW INFORMATION WILL BE SAVED TO BINARY FILE WHENEVER ICBCFL IS NOT ZERO.
 END OF SSM OPTIONS

 OPENED Cl.ssm_sources.txt
 FILE TYPE:OPEN/CLOSE   UNIT ****   STATUS:OLD                 
 FORMAT:FORMATTED              ACCESS:SEQUENTIAL          
 ACTION:READ                

 PROCESSING SOURCES
 AUX SOURCE DETECTED.
    USING AUX COLUMN 7 IN PACKAGE CHDTAIL
 END PROCESSING SOURCES
 OPTIONAL FILEINPUT BLOCK NOT FOUND.  CONTINUING.
      THE LAST TIME STEP WILL BE PRINTED
      THE LAST TIME STEP WILL BE PRINTED
 # File generated by Flopy version 3.5.0.dev0 on 07/04/2024 at 16:27:57.

 PROCESSING OC OPTIONS

    BUDGET INFORMATION WILL BE WRITTEN TO:
      UNIT NUMBER: 13536
      FILE NAME: Cl.cbb

 OPENED Cl.cbb
 FILE TYPE:DATA(BINARY)   UNIT ****   STATUS:REPLACE             
 FORMAT:UNFORMATTED            ACCESS:STREAM              
 ACTION:READWRITE           

    CONCENTRATION INFORMATION WILL BE WRITTEN TO:
      UNIT NUMBER: 13537
      FILE NAME: Cl.ucn

 OPENED Cl.ucn
 FILE TYPE:DATA(BINARY)   UNIT ****   STATUS:REPLACE             
 FORMAT:UNFORMATTED            ACCESS:STREAM              
 ACTION:READWRITE           

 END OF OC OPTIONS

start timestep kper="1" kstp="1" mode="normal"


 BEGIN READING OUTPUT CONTROL FOR STRESS PERIOD 1
      ALL TIME STEPS WILL BE SAVED
      ALL TIME STEPS WILL BE PRINTED

 END READING OUTPUT CONTROL FOR STRESS PERIOD 1

 OPENED Cl.cnc_stress_period_data_1.txt
 FILE TYPE:OPEN/CLOSE   UNIT ****   STATUS:OLD                 
 FORMAT:FORMATTED              ACCESS:SEQUENTIAL          
 ACTION:READ                

1
  CONCENTRATION IN LAYER   1 AT END OF TIME STEP   1 IN STRESS PERIOD    1
  ---------------------------------------------------------------------------

                1               2               3               4               5               6               7               8               9              10
               11              12              13              14              15              16              17              18              19              20
               21              22              23              24              25
 ................................................................................................................................................................
   1  .8397471596     .9764108057     1.020313161     1.026252461     1.026882222     1.026946784     1.026953519     1.026954215     1.026954291     1.026954306    
      1.026954308     1.026954304     1.026954298     1.026954294     1.026954294     1.026954295     1.026954295     1.026954294     1.026954293     1.026954293    
      1.026954294     1.026954296     1.026954297     1.026954299     1.026954300    
1
  CONCENTRATION IN LAYER   2 AT END OF TIME STEP   1 IN STRESS PERIOD    1
  ---------------------------------------------------------------------------

                1               2               3               4               5               6               7               8               9              10
               11              12              13              14              15              16              17              18              19              20
               21              22              23              24              25
 ................................................................................................................................................................
   1  .8542264647     .9822246706     1.021084005     1.026313891     1.026886723     1.026947153     1.026953550     1.026954214     1.026954291     1.026954312    
      1.026954314     1.026954306     1.026954294     1.026954288     1.026954289     1.026954291     1.026954291     1.026954289     1.026954287     1.026954288    
      1.026954290     1.026954292     1.026954295     1.026954299     1.026954300    
1
  CONCENTRATION IN LAYER   3 AT END OF TIME STEP   1 IN STRESS PERIOD    1
  ---------------------------------------------------------------------------

                1               2               3               4               5               6               7               8               9              10
               11              12              13              14              15              16              17              18              19              20
               21              22              23              24              25
 ................................................................................................................................................................
   1  .8995090999     .9954886537     1.022440710     1.026412452     1.026894271     1.026947816     1.026953606     1.026954212     1.026954293     1.026954323    
      1.026954324     1.026954309     1.026954288     1.026954279     1.026954282     1.026954286     1.026954284     1.026954281     1.026954278     1.026954279    
      1.026954283     1.026954288     1.026954292     1.026954298     1.026954300    
1
  CONCENTRATION IN LAYER   4 AT END OF TIME STEP   1 IN STRESS PERIOD    1
  ---------------------------------------------------------------------------

                1               2               3               4               5               6               7               8               9              10
               11              12              13              14              15              16              17              18              19              20
               21              22              23              24              25
 ................................................................................................................................................................
   1  1.026954300     1.015891288     1.023785091     1.026508814     1.026903197     1.026948673     1.026953680     1.026954212     1.026954294     1.026954332    
      1.026954333     1.026954311     1.026954283     1.026954272     1.026954276     1.026954282     1.026954280     1.026954275     1.026954271     1.026954272    
      1.026954277     1.026954284     1.026954290     1.026954297     1.026954300    
1
  CONCENTRATION IN LAYER   5 AT END OF TIME STEP   1 IN STRESS PERIOD    1
  ---------------------------------------------------------------------------

                1               2               3               4               5               6               7               8               9              10
               11              12              13              14              15              16              17              18              19              20
               21              22              23              24              25
 ................................................................................................................................................................
   1  1.026954300     1.023050445     1.025270171     1.026637310     1.026913598     1.026949630     1.026953765     1.026954215     1.026954296     1.026954338    
      1.026954339     1.026954313     1.026954280     1.026954268     1.026954274     1.026954281     1.026954278     1.026954272     1.026954267     1.026954269    
      1.026954274     1.026954282     1.026954288     1.026954296     1.026954299    
1
  CONCENTRATION IN LAYER   6 AT END OF TIME STEP   1 IN STRESS PERIOD    1
  ---------------------------------------------------------------------------

                1               2               3               4               5               6               7               8               9              10
               11              12              13              14              15              16              17              18              19              20
               21              22              23              24              25
 ................................................................................................................................................................
   1  1.026954300     1.025571678     1.026160302     1.026755414     1.026924336     1.026950608     1.026953854     1.026954222     1.026954297     1.026954340    
      1.026954340     1.026954314     1.026954280     1.026954268     1.026954274     1.026954281     1.026954278     1.026954271     1.026954266     1.026954268    
      1.026954274     1.026954281     1.026954287     1.026954296     1.026954299    
1
  CONCENTRATION IN LAYER   7 AT END OF TIME STEP   1 IN STRESS PERIOD    1
  ---------------------------------------------------------------------------

                1               2               3               4               5               6               7               8               9              10
               11              12              13              14              15              16              17              18              19              20
               21              22              23              24              25
 ................................................................................................................................................................
   1  1.026954300     1.026462650     1.026604196     1.026840752     1.026933780     1.026951510     1.026953940     1.026954231     1.026954297     1.026954339    
      1.026954339     1.026954314     1.026954281     1.026954269     1.026954275     1.026954282     1.026954280     1.026954273     1.026954268     1.026954269    
      1.026954274     1.026954282     1.026954287     1.026954295     1.026954299    
1
  CONCENTRATION IN LAYER   8 AT END OF TIME STEP   1 IN STRESS PERIOD    1
  ---------------------------------------------------------------------------

                1               2               3               4               5               6               7               8               9              10
               11              12              13              14              15              16              17              18              19              20
               21              22              23              24              25
 ................................................................................................................................................................
   1  1.026954300     1.026778146     1.026805579     1.026893340     1.026940929     1.026952244     1.026954012     1.026954240     1.026954298     1.026954335    
      1.026954335     1.026954313     1.026954283     1.026954272     1.026954277     1.026954284     1.026954282     1.026954275     1.026954271     1.026954272    
      1.026954277     1.026954283     1.026954288     1.026954296     1.026954299    
1
  CONCENTRATION IN LAYER   9 AT END OF TIME STEP   1 IN STRESS PERIOD    1
  ---------------------------------------------------------------------------

                1               2               3               4               5               6               7               8               9              10
               11              12              13              14              15              16              17              18              19              20
               21              22              23              24              25
 ................................................................................................................................................................
   1  1.026954300     1.026888909     1.026890340     1.026921631     1.026945537     1.026952751     1.026954064     1.026954250     1.026954298     1.026954328    
      1.026954328     1.026954311     1.026954287     1.026954278     1.026954282     1.026954286     1.026954285     1.026954280     1.026954276     1.026954277    
      1.026954281     1.026954286     1.026954290     1.026954296     1.026954299    
1
  CONCENTRATION IN LAYER  10 AT END OF TIME STEP   1 IN STRESS PERIOD    1
  ---------------------------------------------------------------------------

                1               2               3               4               5               6               7               8               9              10
               11              12              13              14              15              16              17              18              19              20
               21              22              23              24              25
 ................................................................................................................................................................
   1  1.026954300     1.026924216     1.026920201     1.026933779     1.026947760     1.026953000     1.026954094     1.026954261     1.026954296     1.026954314    
      1.026954315     1.026954307     1.026954294     1.026954288     1.026954290     1.026954292     1.026954292     1.026954289     1.026954287     1.026954288    
      1.026954289     1.026954292     1.026954294     1.026954298     1.026954300    

 CONCENTRATION WILL BE SAVED ON UNIT **** AT END OF TIME STEP    1, STRESS PERIOD    1



         TIME SUMMARY AT END OF TIME STEP    1 IN STRESS PERIOD    1
                    SECONDS     MINUTES      HOURS       DAYS        YEARS
                    -----------------------------------------------------------
   TIME STEP LENGTH 1.72800E+06  28800.      480.00      20.000     5.47570E-02
 STRESS PERIOD TIME 1.72800E+06  28800.      480.00      20.000     5.47570E-02
         TOTAL TIME 1.72800E+06  28800.      480.00      20.000     5.47570E-02


end timestep


start timestep kper="1" kstp="2" mode="normal"

1
  CONCENTRATION IN LAYER   1 AT END OF TIME STEP   2 IN STRESS PERIOD    1
  ---------------------------------------------------------------------------

                1               2               3               4               5               6               7               8               9              10
               11              12              13              14              15              16              17              18              19              20
               21              22              23              24              25
 ................................................................................................................................................................
   1  .7140961780     .9094570248     1.003919242     1.023576153     1.026508591     1.026897860     1.026947221     1.026953465     1.026954206     1.026954296    
      1.026954304     1.026954302     1.026954298     1.026954293     1.026954290     1.026954289     1.026954288     1.026954287     1.026954286     1.026954287    
      1.026954288     1.026954290     1.026954293     1.026954297     1.026954299    
1
  CONCENTRATION IN LAYER   2 AT END OF TIME STEP   2 IN STRESS PERIOD    1
  ---------------------------------------------------------------------------

                1               2               3               4               5               6               7               8               9              10
               11              12              13              14              15              16              17              18              19              20
               21              22              23              24              25
 ................................................................................................................................................................
   1  .7452013077     .9242807341     1.006588288     1.023858220     1.026534419     1.026900357     1.026947493     1.026953497     1.026954214     1.026954297    
      1.026954301     1.026954301     1.026954296     1.026954291     1.026954286     1.026954283     1.026954281     1.026954281     1.026954281     1.026954282    
      1.026954284     1.026954287     1.026954291     1.026954296     1.026954299    
1
  CONCENTRATION IN LAYER   3 AT END OF TIME STEP   2 IN STRESS PERIOD    1
  ---------------------------------------------------------------------------

                1               2               3               4               5               6               7               8               9              10
               11              12              13              14              15              16              17              18              19              20
               21              22              23              24              25
 ................................................................................................................................................................
   1  .8301711284     .9553471057     1.011193739     1.024318110     1.026578638     1.026904922     1.026948003     1.026953555     1.026954226     1.026954298    
      1.026954298     1.026954298     1.026954294     1.026954288     1.026954281     1.026954275     1.026954272     1.026954271     1.026954272     1.026954274    
      1.026954277     1.026954282     1.026954287     1.026954295     1.026954299    
1
  CONCENTRATION IN LAYER   4 AT END OF TIME STEP   2 IN STRESS PERIOD    1
  ---------------------------------------------------------------------------

                1               2               3               4               5               6               7               8               9              10
               11              12              13              14              15              16              17              18              19              20
               21              22              23              24              25
 ................................................................................................................................................................
   1  1.026954300     .9979760560     1.015985747     1.024804509     1.026632724     1.026910950     1.026948689     1.026953629     1.026954239     1.026954299    
      1.026954296     1.026954296     1.026954293     1.026954286     1.026954276     1.026954268     1.026954263     1.026954263     1.026954264     1.026954267    
      1.026954271     1.026954277     1.026954283     1.026954293     1.026954299    
1
  CONCENTRATION IN LAYER   5 AT END OF TIME STEP   2 IN STRESS PERIOD    1
  ---------------------------------------------------------------------------

                1               2               3               4               5               6               7               8               9              10
               11              12              13              14              15              16              17              18              19              20
               21              22              23              24              25
 ................................................................................................................................................................
   1  1.026954300     1.015374902     1.020783099     1.025399640     1.026695253     1.026917795     1.026949469     1.026953711     1.026954250     1.026954300    
      1.026954295     1.026954296     1.026954293     1.026954285     1.026954274     1.026954264     1.026954259     1.026954259     1.026954260     1.026954263    
      1.026954267     1.026954274     1.026954281     1.026954292     1.026954298    
1
  CONCENTRATION IN LAYER   6 AT END OF TIME STEP   2 IN STRESS PERIOD    1
  ---------------------------------------------------------------------------

                1               2               3               4               5               6               7               8               9              10
               11              12              13              14              15              16              17              18              19              20
               21              22              23              24              25
 ................................................................................................................................................................
   1  1.026954300     1.022369716     1.023835469     1.025947160     1.026759905     1.026924886     1.026950267     1.026953795     1.026954259     1.026954301    
      1.026954296     1.026954296     1.026954294     1.026954285     1.026954273     1.026954263     1.026954258     1.026954258     1.026954259     1.026954262    
      1.026954266     1.026954272     1.026954280     1.026954291     1.026954298    
1
  CONCENTRATION IN LAYER   7 AT END OF TIME STEP   2 IN STRESS PERIOD    1
  ---------------------------------------------------------------------------

                1               2               3               4               5               6               7               8               9              10
               11              12              13              14              15              16              17              18              19              20
               21              22              23              24              25
 ................................................................................................................................................................
   1  1.026954300     1.025150588     1.025477353     1.026355284     1.026817710     1.026931535     1.026951009     1.026953874     1.026954265     1.026954302    
      1.026954297     1.026954297     1.026954294     1.026954286     1.026954274     1.026954265     1.026954260     1.026954259     1.026954260     1.026954263    
      1.026954267     1.026954273     1.026954280     1.026954291     1.026954298    
1
  CONCENTRATION IN LAYER   8 AT END OF TIME STEP   2 IN STRESS PERIOD    1
  ---------------------------------------------------------------------------

                1               2               3               4               5               6               7               8               9              10
               11              12              13              14              15              16              17              18              19              20
               21              22              23              24              25
 ................................................................................................................................................................
   1  1.026954300     1.026245246     1.026279469     1.026617262     1.026862561     1.026937071     1.026951628     1.026953939     1.026954269     1.026954302    
      1.026954297     1.026954298     1.026954295     1.026954287     1.026954277     1.026954268     1.026954263     1.026954263     1.026954264     1.026954266    
      1.026954270     1.026954275     1.026954282     1.026954292     1.026954298    
1
  CONCENTRATION IN LAYER   9 AT END OF TIME STEP   2 IN STRESS PERIOD    1
  ---------------------------------------------------------------------------

                1               2               3               4               5               6               7               8               9              10
               11              12              13              14              15              16              17              18              19              20
               21              22              23              24              25
 ................................................................................................................................................................
   1  1.026954300     1.026668549     1.026637009     1.026765329     1.026892374     1.026940994     1.026952065     1.026953982     1.026954269     1.026954302    
      1.026954299     1.026954299     1.026954296     1.026954289     1.026954280     1.026954274     1.026954270     1.026954269     1.026954270     1.026954272    
      1.026954274     1.026954279     1.026954284     1.026954293     1.026954298    
1
  CONCENTRATION IN LAYER  10 AT END OF TIME STEP   2 IN STRESS PERIOD    1
  ---------------------------------------------------------------------------

                1               2               3               4               5               6               7               8               9              10
               11              12              13              14              15              16              17              18              19              20
               21              22              23              24              25
 ................................................................................................................................................................
   1  1.026954300     1.026812325     1.026770977     1.026830230     1.026907050     1.026943009     1.026952282     1.026953993     1.026954263     1.026954305    
      1.026954306     1.026954303     1.026954296     1.026954290     1.026954285     1.026954282     1.026954280     1.026954279     1.026954278     1.026954279    
      1.026954281     1.026954284     1.026954288     1.026954294     1.026954299    

 CONCENTRATION WILL BE SAVED ON UNIT **** AT END OF TIME STEP    2, STRESS PERIOD    1



         TIME SUMMARY AT END OF TIME STEP    2 IN STRESS PERIOD    1
                    SECONDS     MINUTES      HOURS       DAYS        YEARS
                    -----------------------------------------------------------
   TIME STEP LENGTH 1.72800E+06  28800.      480.00      20.000     5.47570E-02
 STRESS PERIOD TIME 3.45600E+06  57600.      960.00      40.000     0.10951    
         TOTAL TIME 3.45600E+06  57600.      960.00      40.000     0.10951    


end timestep


start timestep kper="1" kstp="3" mode="normal"

1
  CONCENTRATION IN LAYER   1 AT END OF TIME STEP   3 IN STRESS PERIOD    1
  ---------------------------------------------------------------------------

                1               2               3               4               5               6               7               8               9              10
               11              12              13              14              15              16              17              18              19              20
               21              22              23              24              25
 ................................................................................................................................................................
   1  .6307753772     .8441116393     .9788158679     1.017638772     1.025409332     1.026718958     1.026920236     1.026949544     1.026953676     1.026954226    
      1.026954295     1.026954300     1.026954297     1.026954291     1.026954286     1.026954283     1.026954281     1.026954280     1.026954280     1.026954280    
      1.026954282     1.026954285     1.026954289     1.026954294     1.026954298    
1
  CONCENTRATION IN LAYER   2 AT END OF TIME STEP   3 IN STRESS PERIOD    1
  ---------------------------------------------------------------------------

                1               2               3               4               5               6               7               8               9              10
               11              12              13              14              15              16              17              18              19              20
               21              22              23              24              25
 ................................................................................................................................................................
   1  .6754841998     .8681123788     .9842894401     1.018382577     1.025493861     1.026728718     1.026921424     1.026949692     1.026953695     1.026954229    
      1.026954295     1.026954299     1.026954295     1.026954288     1.026954282     1.026954278     1.026954276     1.026954275     1.026954275     1.026954276    
      1.026954278     1.026954282     1.026954287     1.026954293     1.026954298    
1
  CONCENTRATION IN LAYER   3 AT END OF TIME STEP   3 IN STRESS PERIOD    1
  ---------------------------------------------------------------------------

                1               2               3               4               5               6               7               8               9              10
               11              12              13              14              15              16              17              18              19              20
               21              22              23              24              25
 ................................................................................................................................................................
   1  .7888004124     .9159843858     .9936783906     1.019618236     1.025641397     1.026746716     1.026923668     1.026949971     1.026953727     1.026954233    
      1.026954294     1.026954298     1.026954292     1.026954283     1.026954275     1.026954270     1.026954267     1.026954266     1.026954266     1.026954268    
      1.026954271     1.026954277     1.026954283     1.026954292     1.026954298    
1
  CONCENTRATION IN LAYER   4 AT END OF TIME STEP   3 IN STRESS PERIOD    1
  ---------------------------------------------------------------------------

                1               2               3               4               5               6               7               8               9              10
               11              12              13              14              15              16              17              18              19              20
               21              22              23              24              25
 ................................................................................................................................................................
   1  1.026954300     .9777385676     1.003816486     1.020996194     1.025826232     1.026770753     1.026926722     1.026950352     1.026953771     1.026954239    
      1.026954295     1.026954297     1.026954290     1.026954279     1.026954270     1.026954263     1.026954260     1.026954259     1.026954259     1.026954261    
      1.026954265     1.026954272     1.026954280     1.026954290     1.026954297    
1
  CONCENTRATION IN LAYER   5 AT END OF TIME STEP   3 IN STRESS PERIOD    1
  ---------------------------------------------------------------------------

                1               2               3               4               5               6               7               8               9              10
               11              12              13              14              15              16              17              18              19              20
               21              22              23              24              25
 ................................................................................................................................................................
   1  1.026954300     1.005483464     1.013397219     1.022595280     1.026038978     1.026798337     1.026930251     1.026950793     1.026953822     1.026954246    
      1.026954296     1.026954297     1.026954290     1.026954277     1.026954266     1.026954259     1.026954255     1.026954254     1.026954254     1.026954256    
      1.026954261     1.026954268     1.026954277     1.026954289     1.026954297    
1
  CONCENTRATION IN LAYER   6 AT END OF TIME STEP   3 IN STRESS PERIOD    1
  ---------------------------------------------------------------------------

                1               2               3               4               5               6               7               8               9              10
               11              12              13              14              15              16              17              18              19              20
               21              22              23              24              25
 ................................................................................................................................................................
   1  1.026954300     1.017715302     1.019735455     1.024060787     1.026258315     1.026827144     1.026933918     1.026951249     1.026953875     1.026954252    
      1.026954297     1.026954297     1.026954290     1.026954277     1.026954266     1.026954258     1.026954254     1.026954253     1.026954253     1.026954255    
      1.026954259     1.026954267     1.026954276     1.026954288     1.026954297    
1
  CONCENTRATION IN LAYER   7 AT END OF TIME STEP   3 IN STRESS PERIOD    1
  ---------------------------------------------------------------------------

                1               2               3               4               5               6               7               8               9              10
               11              12              13              14              15              16              17              18              19              20
               21              22              23              24              25
 ................................................................................................................................................................
   1  1.026954300     1.023023986     1.023334901     1.025176090     1.026456170     1.026854421     1.026937383     1.026951677     1.026953924     1.026954257    
      1.026954298     1.026954298     1.026954291     1.026954278     1.026954267     1.026954260     1.026954256     1.026954254     1.026954254     1.026954256    
      1.026954260     1.026954268     1.026954276     1.026954288     1.026954297    
1
  CONCENTRATION IN LAYER   8 AT END OF TIME STEP   3 IN STRESS PERIOD    1
  ---------------------------------------------------------------------------

                1               2               3               4               5               6               7               8               9              10
               11              12              13              14              15              16              17              18              19              20
               21              22              23              24              25
 ................................................................................................................................................................
   1  1.026954300     1.025298669     1.025183277     1.025918504     1.026612626     1.026877408     1.026940310     1.026952035     1.026953965     1.026954261    
      1.026954299     1.026954299     1.026954292     1.026954280     1.026954270     1.026954263     1.026954259     1.026954258     1.026954258     1.026954259    
      1.026954263     1.026954270     1.026954277     1.026954288     1.026954297    
1
  CONCENTRATION IN LAYER   9 AT END OF TIME STEP   3 IN STRESS PERIOD    1
  ---------------------------------------------------------------------------

                1               2               3               4               5               6               7               8               9              10
               11              12              13              14              15              16              17              18              19              20
               21              22              23              24              25
 ................................................................................................................................................................
   1  1.026954300     1.026241091     1.026055804     1.026349594     1.026718150     1.026893877     1.026942415     1.026952290     1.026953993     1.026954263    
      1.026954300     1.026954300     1.026954293     1.026954283     1.026954274     1.026954268     1.026954265     1.026954264     1.026954263     1.026954264    
      1.026954268     1.026954273     1.026954280     1.026954289     1.026954297    
1
  CONCENTRATION IN LAYER  10 AT END OF TIME STEP   3 IN STRESS PERIOD    1
  ---------------------------------------------------------------------------

                1               2               3               4               5               6               7               8               9              10
               11              12              13              14              15              16              17              18              19              20
               21              22              23              24              25
 ................................................................................................................................................................
   1  1.026954300     1.026576385     1.026400620     1.026541108     1.026770385     1.026902404     1.026943506     1.026952420     1.026954007     1.026954265    
      1.026954301     1.026954301     1.026954296     1.026954287     1.026954280     1.026954275     1.026954272     1.026954271     1.026954270     1.026954271    
      1.026954273     1.026954278     1.026954283     1.026954290     1.026954297    

 CONCENTRATION WILL BE SAVED ON UNIT **** AT END OF TIME STEP    3, STRESS PERIOD    1



         TIME SUMMARY AT END OF TIME STEP    3 IN STRESS PERIOD    1
                    SECONDS     MINUTES      HOURS       DAYS        YEARS
                    -----------------------------------------------------------
   TIME STEP LENGTH 1.72800E+06  28800.      480.00      20.000     5.47570E-02
 STRESS PERIOD TIME 5.18400E+06  86400.      1440.0      60.000     0.16427    
         TOTAL TIME 5.18400E+06  86400.      1440.0      60.000     0.16427    


end timestep


start timestep kper="1" kstp="4" mode="normal"

1
  CONCENTRATION IN LAYER   1 AT END OF TIME STEP   4 IN STRESS PERIOD    1
  ---------------------------------------------------------------------------

                1               2               3               4               5               6               7               8               9              10
               11              12              13              14              15              16              17              18              19              20
               21              22              23              24              25
 ................................................................................................................................................................
   1  .5755679975     .7878036827     .9482305489     1.007700156     1.023026891     1.026242371     1.026835263     1.026935500     1.026951461     1.026953899    
      1.026954248     1.026954293     1.026954294     1.026954290     1.026954284     1.026954279     1.026954276     1.026954275     1.026954274     1.026954275    
      1.026954277     1.026954280     1.026954285     1.026954291     1.026954297    
1
  CONCENTRATION IN LAYER   2 AT END OF TIME STEP   4 IN STRESS PERIOD    1
  ---------------------------------------------------------------------------

                1               2               3               4               5               6               7               8               9              10
               11              12              13              14              15              16              17              18              19              20
               21              22              23              24              25
 ................................................................................................................................................................
   1  .6301590350     .8196432431     .9569607285     1.009177945     1.023232333     1.026270442     1.026839172     1.026936040     1.026951534     1.026953909    
      1.026954248     1.026954292     1.026954292     1.026954287     1.026954280     1.026954275     1.026954271     1.026954270     1.026954269     1.026954271    
      1.026954273     1.026954277     1.026954283     1.026954290     1.026954296    
1
  CONCENTRATION IN LAYER   3 AT END OF TIME STEP   4 IN STRESS PERIOD    1
  ---------------------------------------------------------------------------

                1               2               3               4               5               6               7               8               9              10
               11              12              13              14              15              16              17              18              19              20
               21              22              23              24              25
 ................................................................................................................................................................
   1  .7627119001     .8813048676     .9719360476     1.011673951     1.023596368     1.026322607     1.026846580     1.026937066     1.026951673     1.026953926    
      1.026954249     1.026954289     1.026954289     1.026954283     1.026954274     1.026954268     1.026954264     1.026954262     1.026954262     1.026954264    
      1.026954267     1.026954273     1.026954280     1.026954289     1.026954296    
1
  CONCENTRATION IN LAYER   4 AT END OF TIME STEP   4 IN STRESS PERIOD    1
  ---------------------------------------------------------------------------

                1               2               3               4               5               6               7               8               9              10
               11              12              13              14              15              16              17              18              19              20
               21              22              23              24              25
 ................................................................................................................................................................
   1  1.026954300     .9580745059     .9885497996     1.014556049     1.024060019     1.026392843     1.026856721     1.026938475     1.026951862     1.026953949    
      1.026954251     1.026954287     1.026954286     1.026954279     1.026954269     1.026954261     1.026954256     1.026954254     1.026954255     1.026954257    
      1.026954261     1.026954268     1.026954276     1.026954287     1.026954295    
1
  CONCENTRATION IN LAYER   5 AT END OF TIME STEP   4 IN STRESS PERIOD    1
  ---------------------------------------------------------------------------

                1               2               3               4               5               6               7               8               9              10
               11              12              13              14              15              16              17              18              19              20
               21              22              23              24              25
 ................................................................................................................................................................
   1  1.026954300     .9948966869     1.003745680     1.017793424     1.024592484     1.026474100     1.026868540     1.026940119     1.026952082     1.026953976    
      1.026954254     1.026954287     1.026954285     1.026954277     1.026954266     1.026954258     1.026954252     1.026954250     1.026954250     1.026954253    
      1.026954257     1.026954265     1.026954273     1.026954285     1.026954295    
1
  CONCENTRATION IN LAYER   6 AT END OF TIME STEP   4 IN STRESS PERIOD    1
  ---------------------------------------------------------------------------

                1               2               3               4               5               6               7               8               9              10
               11              12              13              14              15              16              17              18              19              20
               21              22              23              24              25
 ................................................................................................................................................................
   1  1.026954300     1.012254908     1.014078871     1.020750323     1.025140065     1.026559435     1.026880921     1.026941835     1.026952311     1.026954004    
      1.026954258     1.026954287     1.026954285     1.026954277     1.026954266     1.026954256     1.026954251     1.026954248     1.026954249     1.026954251    
      1.026954256     1.026954263     1.026954272     1.026954284     1.026954295    
1
  CONCENTRATION IN LAYER   7 AT END OF TIME STEP   4 IN STRESS PERIOD    1
  ---------------------------------------------------------------------------

                1               2               3               4               5               6               7               8               9              10
               11              12              13              14              15              16              17              18              19              20
               21              22              23              24              25
 ................................................................................................................................................................
   1  1.026954300     1.020318839     1.020171648     1.023040713     1.025637637     1.026640755     1.026892701     1.026943453     1.026952525     1.026954031    
      1.026954261     1.026954289     1.026954286     1.026954278     1.026954267     1.026954258     1.026954252     1.026954249     1.026954250     1.026954252    
      1.026954256     1.026954264     1.026954272     1.026954284     1.026954295    
1
  CONCENTRATION IN LAYER   8 AT END OF TIME STEP   4 IN STRESS PERIOD    1
  ---------------------------------------------------------------------------

                1               2               3               4               5               6               7               8               9              10
               11              12              13              14              15              16              17              18              19              20
               21              22              23              24              25
 ................................................................................................................................................................
   1  1.026954300     1.024010079     1.023417964     1.024612434     1.026036607     1.026709775     1.026902721     1.026944816     1.026952704     1.026954053    
      1.026954264     1.026954290     1.026954288     1.026954280     1.026954269     1.026954261     1.026954255     1.026954253     1.026954253     1.026954255    
      1.026954259     1.026954266     1.026954274     1.026954285     1.026954295    
1
  CONCENTRATION IN LAYER   9 AT END OF TIME STEP   4 IN STRESS PERIOD    1
  ---------------------------------------------------------------------------

                1               2               3               4               5               6               7               8               9              10
               11              12              13              14              15              16              17              18              19              20
               21              22              23              24              25
 ................................................................................................................................................................
   1  1.026954300     1.025612609     1.025044962     1.025533720     1.026306571     1.026759512     1.026909978     1.026945793     1.026952832     1.026954069    
      1.026954267     1.026954292     1.026954290     1.026954282     1.026954273     1.026954265     1.026954260     1.026954258     1.026954258     1.026954259    
      1.026954263     1.026954269     1.026954276     1.026954286     1.026954295    
1
  CONCENTRATION IN LAYER  10 AT END OF TIME STEP   4 IN STRESS PERIOD    1
  ---------------------------------------------------------------------------

                1               2               3               4               5               6               7               8               9              10
               11              12              13              14              15              16              17              18              19              20
               21              22              23              24              25
 ................................................................................................................................................................
   1  1.026954300     1.026203695     1.025714636     1.025948957     1.026440558     1.026785368     1.026913766     1.026946300     1.026952897     1.026954077    
      1.026954270     1.026954295     1.026954293     1.026954286     1.026954277     1.026954271     1.026954266     1.026954264     1.026954264     1.026954265    
      1.026954267     1.026954272     1.026954278     1.026954287     1.026954295    

 CONCENTRATION WILL BE SAVED ON UNIT **** AT END OF TIME STEP    4, STRESS PERIOD    1



         TIME SUMMARY AT END OF TIME STEP    4 IN STRESS PERIOD    1
                    SECONDS     MINUTES      HOURS       DAYS        YEARS
                    -----------------------------------------------------------
   TIME STEP LENGTH 1.72800E+06  28800.      480.00      20.000     5.47570E-02
 STRESS PERIOD TIME 6.91200E+06 1.15200E+05  1920.0      80.000     0.21903    
         TOTAL TIME 6.91200E+06 1.15200E+05  1920.0      80.000     0.21903    


end timestep


start timestep kper="1" kstp="5" mode="normal"

1
  CONCENTRATION IN LAYER   1 AT END OF TIME STEP   5 IN STRESS PERIOD    1
  ---------------------------------------------------------------------------

                1               2               3               4               5               6               7               8               9              10
               11              12              13              14              15              16              17              18              19              20
               21              22              23              24              25
 ................................................................................................................................................................
   1  .5388048216     .7423179653     .9156864274     .9938127806     1.018811429     1.025217114     1.026620469     1.026894867     1.026944300     1.026952687    
      1.026954060     1.026954265     1.026954289     1.026954288     1.026954282     1.026954276     1.026954272     1.026954270     1.026954269     1.026954270    
      1.026954272     1.026954276     1.026954281     1.026954288     1.026954295    
1
  CONCENTRATION IN LAYER   2 AT END OF TIME STEP   5 IN STRESS PERIOD    1
  ---------------------------------------------------------------------------

                1               2               3               4               5               6               7               8               9              10
               11              12              13              14              15              16              17              18              19              20
               21              22              23              24              25
 ................................................................................................................................................................
   1  .6002433559     .7802767066     .9277039270     .9962696877     1.019222533     1.025282995     1.026630940     1.026896483     1.026944538     1.026952721    
      1.026954064     1.026954264     1.026954287     1.026954285     1.026954278     1.026954272     1.026954268     1.026954265     1.026954265     1.026954266    
      1.026954269     1.026954273     1.026954279     1.026954287     1.026954294    
1
  CONCENTRATION IN LAYER   3 AT END OF TIME STEP   5 IN STRESS PERIOD    1
  ---------------------------------------------------------------------------

                1               2               3               4               5               6               7               8               9              10
               11              12              13              14              15              16              17              18              19              20
               21              22              23              24              25
 ................................................................................................................................................................
   1  .7456994458     .8524771491     .9483680423     1.000474738     1.019959191     1.025406120     1.026650832     1.026899561     1.026944993     1.026952785    
      1.026954070     1.026954262     1.026954284     1.026954281     1.026954273     1.026954266     1.026954261     1.026954258     1.026954259     1.026954260    
      1.026954263     1.026954269     1.026954276     1.026954285     1.026954294    
1
  CONCENTRATION IN LAYER   4 AT END OF TIME STEP   5 IN STRESS PERIOD    1
  ---------------------------------------------------------------------------

                1               2               3               4               5               6               7               8               9              10
               11              12              13              14              15              16              17              18              19              20
               21              22              23              24              25
 ................................................................................................................................................................
   1  1.026954300     .9404673899     .9717543677     1.005442928     1.020908082     1.025572878     1.026678174     1.026903797     1.026945618     1.026952874    
      1.026954079     1.026954261     1.026954281     1.026954277     1.026954269     1.026954260     1.026954254     1.026954252     1.026954252     1.026954254    
      1.026954258     1.026954265     1.026954273     1.026954283     1.026954293    
1
  CONCENTRATION IN LAYER   5 AT END OF TIME STEP   5 IN STRESS PERIOD    1
  ---------------------------------------------------------------------------

                1               2               3               4               5               6               7               8               9              10
               11              12              13              14              15              16              17              18              19              20
               21              22              23              24              25
 ................................................................................................................................................................
   1  1.026954300     .9846850576     .9927596168     1.010911546     1.021996808     1.025767047     1.026710226     1.026908761     1.026946349     1.026952979    
      1.026954091     1.026954262     1.026954280     1.026954275     1.026954266     1.026954257     1.026954250     1.026954247     1.026954248     1.026954250    
      1.026954254     1.026954261     1.026954270     1.026954282     1.026954293    
1
  CONCENTRATION IN LAYER   6 AT END OF TIME STEP   5 IN STRESS PERIOD    1
  ---------------------------------------------------------------------------

                1               2               3               4               5               6               7               8               9              10
               11              12              13              14              15              16              17              18              19              20
               21              22              23              24              25
 ................................................................................................................................................................
   1  1.026954300     1.006611159     1.007322521     1.015902460     1.023116412     1.025971891     1.026743980     1.026913959     1.026947112     1.026953088    
      1.026954104     1.026954263     1.026954280     1.026954275     1.026954265     1.026954255     1.026954249     1.026954246     1.026954246     1.026954248    
      1.026954253     1.026954260     1.026954269     1.026954281     1.026954292    
1
  CONCENTRATION IN LAYER   7 AT END OF TIME STEP   5 IN STRESS PERIOD    1
  ---------------------------------------------------------------------------

                1               2               3               4               5               6               7               8               9              10
               11              12              13              14              15              16              17              18              19              20
               21              22              23              24              25
 ................................................................................................................................................................
   1  1.026954300     1.017394818     1.016060385     1.019867033     1.024143694     1.026167851     1.026776226     1.026918878     1.026947830     1.026953190    
      1.026954117     1.026954266     1.026954281     1.026954276     1.026954266     1.026954256     1.026954250     1.026954247     1.026954247     1.026954249    
      1.026954253     1.026954260     1.026954269     1.026954281     1.026954292    
1
  CONCENTRATION IN LAYER   8 AT END OF TIME STEP   5 IN STRESS PERIOD    1
  ---------------------------------------------------------------------------

                1               2               3               4               5               6               7               8               9              10
               11              12              13              14              15              16              17              18              19              20
               21              22              23              24              25
 ................................................................................................................................................................
   1  1.026954300     1.022525668     1.020982568     1.022591498     1.024965964     1.026334602     1.026803778     1.026923036     1.026948434     1.026953276    
      1.026954128     1.026954268     1.026954282     1.026954278     1.026954268     1.026954259     1.026954253     1.026954250     1.026954250     1.026954251    
      1.026954255     1.026954262     1.026954270     1.026954281     1.026954292    
1
  CONCENTRATION IN LAYER   9 AT END OF TIME STEP   5 IN STRESS PERIOD    1
  ---------------------------------------------------------------------------

                1               2               3               4               5               6               7               8               9              10
               11              12              13              14              15              16              17              18              19              20
               21              22              23              24              25
 ................................................................................................................................................................
   1  1.026954300     1.024836041     1.023562315     1.024212527     1.025522652     1.026454894     1.026823812     1.026926031     1.026948867     1.026953337    
      1.026954138     1.026954271     1.026954285     1.026954280     1.026954271     1.026954263     1.026954257     1.026954254     1.026954254     1.026954255    
      1.026954259     1.026954264     1.026954272     1.026954282     1.026954292    
1
  CONCENTRATION IN LAYER  10 AT END OF TIME STEP   5 IN STRESS PERIOD    1
  ---------------------------------------------------------------------------

                1               2               3               4               5               6               7               8               9              10
               11              12              13              14              15              16              17              18              19              20
               21              22              23              24              25
 ................................................................................................................................................................
   1  1.026954300     1.025712899     1.024656813     1.024953696     1.025799525     1.026517485     1.026834306     1.026927593     1.026949093     1.026953370    
      1.026954144     1.026954274     1.026954288     1.026954284     1.026954275     1.026954268     1.026954262     1.026954259     1.026954258     1.026954259    
      1.026954262     1.026954267     1.026954274     1.026954283     1.026954293    

 CONCENTRATION WILL BE SAVED ON UNIT **** AT END OF TIME STEP    5, STRESS PERIOD    1



         TIME SUMMARY AT END OF TIME STEP    5 IN STRESS PERIOD    1
                    SECONDS     MINUTES      HOURS       DAYS        YEARS
                    -----------------------------------------------------------
   TIME STEP LENGTH 1.72800E+06  28800.      480.00      20.000     5.47570E-02
 STRESS PERIOD TIME 8.64000E+06 1.44000E+05  2400.0      100.00     0.27379    
         TOTAL TIME 8.64000E+06 1.44000E+05  2400.0      100.00     0.27379    


end timestep


start timestep kper="1" kstp="6" mode="normal"

1
  CONCENTRATION IN LAYER   1 AT END OF TIME STEP   6 IN STRESS PERIOD    1
  ---------------------------------------------------------------------------

                1               2               3               4               5               6               7               8               9              10
               11              12              13              14              15              16              17              18              19              20
               21              22              23              24              25
 ................................................................................................................................................................
   1  .5141365196     .7069079487     .8839824610     .9767138566     1.012380582     1.023336098     1.026159723     1.026795411     1.026924679     1.026949062    
      1.026953415     1.026954160     1.026954272     1.026954283     1.026954280     1.026954274     1.026954269     1.026954266     1.026954265     1.026954266    
      1.026954268     1.026954272     1.026954277     1.026954284     1.026954293    
1
  CONCENTRATION IN LAYER   2 AT END OF TIME STEP   6 IN STRESS PERIOD    1
  ---------------------------------------------------------------------------

                1               2               3               4               5               6               7               8               9              10
               11              12              13              14              15              16              17              18              19              20
               21              22              23              24              25
 ................................................................................................................................................................
   1  .5802390302     .7494111558     .8990325720     .9803247778     1.013095325     1.023469253     1.026183768     1.026799545     1.026925350     1.026949165    
      1.026953430     1.026954160     1.026954270     1.026954281     1.026954277     1.026954270     1.026954265     1.026954262     1.026954261     1.026954262    
      1.026954265     1.026954269     1.026954275     1.026954284     1.026954292    
1
  CONCENTRATION IN LAYER   3 AT END OF TIME STEP   6 IN STRESS PERIOD    1
  ---------------------------------------------------------------------------

                1               2               3               4               5               6               7               8               9              10
               11              12              13              14              15              16              17              18              19              20
               21              22              23              24              25
 ................................................................................................................................................................
   1  .7343623755     .8293518920     .9249935104     .9865679550     1.014386674     1.023719163     1.026229539     1.026807424     1.026926627     1.026949362    
      1.026953457     1.026954161     1.026954267     1.026954277     1.026954272     1.026954265     1.026954259     1.026954256     1.026954255     1.026954257    
      1.026954260     1.026954265     1.026954273     1.026954282     1.026954292    
1
  CONCENTRATION IN LAYER   4 AT END OF TIME STEP   6 IN STRESS PERIOD    1
  ---------------------------------------------------------------------------

                1               2               3               4               5               6               7               8               9              10
               11              12              13              14              15              16              17              18              19              20
               21              22              23              24              25
 ................................................................................................................................................................
   1  1.026954300     .9254883294     .9548098210     .9940584961     1.016063768     1.024059167     1.026292641     1.026818283     1.026928384     1.026949632    
      1.026953494     1.026954164     1.026954265     1.026954273     1.026954268     1.026954260     1.026954253     1.026954250     1.026954250     1.026954251    
      1.026954255     1.026954261     1.026954269     1.026954280     1.026954291    
1
  CONCENTRATION IN LAYER   5 AT END OF TIME STEP   6 IN STRESS PERIOD    1
  ---------------------------------------------------------------------------

                1               2               3               4               5               6               7               8               9              10
               11              12              13              14              15              16              17              18              19              20
               21              22              23              24              25
 ................................................................................................................................................................
   1  1.026954300     .9755016493     .9812984498     1.002205177     1.017989658     1.024457028     1.026366915     1.026831045     1.026930442     1.026949948    
      1.026953540     1.026954168     1.026954264     1.026954271     1.026954265     1.026954256     1.026954249     1.026954245     1.026954246     1.026954247    
      1.026954252     1.026954258     1.026954267     1.026954279     1.026954290    
1
  CONCENTRATION IN LAYER   6 AT END OF TIME STEP   6 IN STRESS PERIOD    1
  ---------------------------------------------------------------------------

                1               2               3               4               5               6               7               8               9              10
               11              12              13              14              15              16              17              18              19              20
               21              22              23              24              25
 ................................................................................................................................................................
   1  1.026954300     1.001359652     .9997991693     1.009699214     1.019976331     1.024877926     1.026445373     1.026844446     1.026932594     1.026950279    
      1.026953588     1.026954174     1.026954265     1.026954270     1.026954264     1.026954255     1.026954248     1.026954244     1.026954244     1.026954246    
      1.026954250     1.026954257     1.026954266     1.026954278     1.026954290    
1
  CONCENTRATION IN LAYER   7 AT END OF TIME STEP   6 IN STRESS PERIOD    1
  ---------------------------------------------------------------------------

                1               2               3               4               5               6               7               8               9              10
               11              12              13              14              15              16              17              18              19              20
               21              22              23              24              25
 ................................................................................................................................................................
   1  1.026954300     1.014538016     1.011241471     1.015694584     1.021799617     1.025280936     1.026520508     1.026857163     1.026934624     1.026950591    
      1.026953634     1.026954180     1.026954267     1.026954271     1.026954265     1.026954256     1.026954248     1.026954244     1.026954244     1.026954246    
      1.026954250     1.026954257     1.026954266     1.026954277     1.026954290    
1
  CONCENTRATION IN LAYER   8 AT END OF TIME STEP   6 IN STRESS PERIOD    1
  ---------------------------------------------------------------------------

                1               2               3               4               5               6               7               8               9              10
               11              12              13              14              15              16              17              18              19              20
               21              22              23              24              25
 ................................................................................................................................................................
   1  1.026954300     1.020991448     1.017978574     1.019838849     1.023254651     1.025623645     1.026584850     1.026867944     1.026936334     1.026950854    
      1.026953674     1.026954186     1.026954269     1.026954273     1.026954267     1.026954258     1.026954251     1.026954247     1.026954247     1.026954248    
      1.026954252     1.026954258     1.026954266     1.026954278     1.026954290    
1
  CONCENTRATION IN LAYER   9 AT END OF TIME STEP   6 IN STRESS PERIOD    1
  ---------------------------------------------------------------------------

                1               2               3               4               5               6               7               8               9              10
               11              12              13              14              15              16              17              18              19              20
               21              22              23              24              25
 ................................................................................................................................................................
   1  1.026954300     1.023980683     1.021634901     1.022339823     1.024240180     1.025870614     1.026631722     1.026875735     1.026937562     1.026951043    
      1.026953703     1.026954191     1.026954272     1.026954276     1.026954270     1.026954262     1.026954255     1.026954251     1.026954250     1.026954251    
[...]
      .8931847274     .8952067858     .8981671600     .9023603948     .9093064857    
1
  CONCENTRATION IN LAYER   9 AT END OF TIME STEP  99 IN STRESS PERIOD    1
  ---------------------------------------------------------------------------

                1               2               3               4               5               6               7               8               9              10
               11              12              13              14              15              16              17              18              19              20
               21              22              23              24              25
 ................................................................................................................................................................
   1  1.026954300     1.017792768     .9967400897     .9714774884     .9491014681     .9318153895     .9192465050     .9103476147     .9041161345     .8997704371    
      .8967439804     .8946371875     .8931711779     .8921526263     .8914487440     .8909812291     .8908198092     .8908970438     .8912231192     .8919467008    
      .8932221305     .8952320970     .8981843765     .9023721461     .9093136850    
1
  CONCENTRATION IN LAYER  10 AT END OF TIME STEP  99 IN STRESS PERIOD    1
  ---------------------------------------------------------------------------

                1               2               3               4               5               6               7               8               9              10
               11              12              13              14              15              16              17              18              19              20
               21              22              23              24              25
 ................................................................................................................................................................
   1  1.026954300     1.020068488     1.002155590     .9779722492     .9548013902     .9361738779     .9223927706     .9125664248     .9056669299     .9008510184    
      .8974962650     .8951608237     .8935356591     .8924063257     .8916251869     .8911019775     .8909017630     .8909625077     .8912679462     .8919761701    
      .8932417660     .8952453798     .8981934210     .9023783200     .9093174696    

 CONCENTRATION WILL BE SAVED ON UNIT **** AT END OF TIME STEP   99, STRESS PERIOD    1



         TIME SUMMARY AT END OF TIME STEP   99 IN STRESS PERIOD    1
                    SECONDS     MINUTES      HOURS       DAYS        YEARS
                    -----------------------------------------------------------
   TIME STEP LENGTH 1.72800E+06  28800.      480.00      20.000     5.47570E-02
 STRESS PERIOD TIME 1.71072E+08 2.85120E+06  47520.      1980.0      5.4209    
         TOTAL TIME 1.71072E+08 2.85120E+06  47520.      1980.0      5.4209    


end timestep


start timestep kper="1" kstp="100" mode="normal"


 SSM PACKAGE (SSM) FLOW RATES   PERIOD      1   STEP      100
 ------------------------------------------------------------------------------------------------
   NUMBER   CELLID                   BOUND Q        SSM CONC          RATE         PACKAGE NAME  
 ------------------------------------------------------------------------------------------------
     1      (4,1,1)               0.0000000       0.0000000       0.0000000            CHD       
     2      (5,1,1)               0.0000000       0.0000000       0.0000000            CHD       
     3      (6,1,1)               0.0000000       0.0000000       0.0000000            CHD       
     4      (7,1,1)               0.0000000       0.0000000       0.0000000            CHD       
     5      (8,1,1)               0.0000000       0.0000000       0.0000000            CHD       
     6      (9,1,1)               0.0000000       0.0000000       0.0000000            CHD       
     7      (10,1,1)              0.0000000       0.0000000       0.0000000            CHD       
     8      (1,1,25)             -2.08333338E-02  0.90755089     -1.89073107E-02       CHD       
     9      (2,1,25)             -2.08333338E-02  0.90755469     -1.89073899E-02       CHD       
     10     (3,1,25)             -2.08333338E-02  0.90756193     -1.89075405E-02       CHD       
     11     (4,1,25)             -2.08333338E-02  0.90757188     -1.89077479E-02       CHD       
     12     (5,1,25)             -2.08333338E-02  0.90758358     -1.89079916E-02       CHD       
     13     (6,1,25)             -2.08333338E-02  0.90759587     -1.89082478E-02       CHD       
     14     (7,1,25)             -2.08333338E-02  0.90760757     -1.89084915E-02       CHD       
     15     (8,1,25)             -2.08333338E-02  0.90761752     -1.89086987E-02       CHD       
     16     (9,1,25)             -2.08333338E-02  0.90762475     -1.89088493E-02       CHD       
     17     (10,1,25)            -2.08333338E-02  0.90762854     -1.89089284E-02       CHD       
     1      (1,1,1)               2.08333329E-02  0.11864812      2.47183578E-03     CHDTAIL     
     2      (2,1,1)               2.08333329E-02  0.11864812      2.47183578E-03     CHDTAIL     
     3      (3,1,1)               2.08333329E-02  0.11864812      2.47183578E-03     CHDTAIL     
 ------------------------------------------------------------------------------------------------




 CNC PACKAGE (CNC) FLOW RATES   PERIOD      1   STEP      100
 -----------------------------------------------
   NUMBER   CELLID                    RATE      
 -----------------------------------------------
     1      (4,1,1)               4.86385175E-02
     2      (5,1,1)               2.18226732E-02
     3      (6,1,1)               2.16303211E-02
     4      (7,1,1)               2.15262585E-02
     5      (8,1,1)               2.14708200E-02
     6      (9,1,1)               2.14425971E-02
     7      (10,1,1)              2.14307444E-02
 -----------------------------------------------



1
  CONCENTRATION IN LAYER   1 AT END OF TIME STEP 100 IN STRESS PERIOD    1
  ---------------------------------------------------------------------------

                1               2               3               4               5               6               7               8               9              10
               11              12              13              14              15              16              17              18              19              20
               21              22              23              24              25
 ................................................................................................................................................................
   1  .4600534455     .6050970488     .7207060654     .7841127462     .8199538124     .8422220394     .8569540297     .8670037744     .8739489160     .8787722170    
      .8821275412     .8844628854     .8860888129     .8872222320     .8880196115     .8886083828     .8891030136     .8896103260     .8902420131     .8911310231    
      .8924417721     .8943700663     .8971363879     .9010447897     .9075508934    
1
  CONCENTRATION IN LAYER   2 AT END OF TIME STEP 100 IN STRESS PERIOD    1
  ---------------------------------------------------------------------------

                1               2               3               4               5               6               7               8               9              10
               11              12              13              14              15              16              17              18              19              20
               21              22              23              24              25
 ................................................................................................................................................................
   1  .5363395516     .6592806535     .7470249920     .7971746687     .8274716005     .8470429987     .8602066579     .8692434150     .8755027001     .8798528711    
      .8828796667     .8849864391     .8864532646     .8874759168     .8881959983     .8887311808     .8891891999     .8896710626     .8902845486     .8911604236    
      .8924618281     .8943836397     .8971455606     .9010510172     .9075546949    
1
  CONCENTRATION IN LAYER   3 AT END OF TIME STEP 100 IN STRESS PERIOD    1
  ---------------------------------------------------------------------------

                1               2               3               4               5               6               7               8               9              10
               11              12              13              14              15              16              17              18              19              20
               21              22              23              24              25
 ................................................................................................................................................................
   1  .7093646968     .7591996768     .7928071002     .8207587383     .8414848548     .8561522450     .8663801626     .8735007402     .8784577641     .8819083832    
      .8843103140     .8859823082     .8871464969     .8879584575     .8885314719     .8889646617     .8893531900     .8897866877     .8903655043     .8912163410    
      .8924999493     .8944094344     .8971629974     .9010628604     .9075619257    
1
  CONCENTRATION IN LAYER   4 AT END OF TIME STEP 100 IN STRESS PERIOD    1
  ---------------------------------------------------------------------------

                1               2               3               4               5               6               7               8               9              10
               11              12              13              14              15              16              17              18              19              20
               21              22              23              24              25
 ................................................................................................................................................................
   1  1.026954300     .8776095756     .8461416071     .8509426751     .8602302550     .8685650109     .8748478744     .8793545636     .8825242172     .8847375265    
      .8862794732     .8873530275     .8881006578     .8886226256     .8889931309     .8892857181     .8895790501     .8899460931     .8904770616     .8912932965    
      .8925523550     .8944448866     .8971869722     .9010791534     .9075718775    
1
  CONCENTRATION IN LAYER   5 AT END OF TIME STEP 100 IN STRESS PERIOD    1
  ---------------------------------------------------------------------------

                1               2               3               4               5               6               7               8               9              10
               11              12              13              14              15              16              17              18              19              20
               21              22              23              24              25
 ................................................................................................................................................................
   1  1.026954300     .9448181459     .8958401572     .8828377176     .8816640329     .8829871332     .8847577865     .8862277687     .8873034561     .8880633454    
      .8885944201     .8889644391     .8892223539     .8894034115     .8895356985     .8896623163     .8898449174     .8901340559     .8906084925     .8913837644    
      .8926138560     .8944864803     .8972151175     .9010982946     .9075835755    
1
  CONCENTRATION IN LAYER   6 AT END OF TIME STEP 100 IN STRESS PERIOD    1
  ---------------------------------------------------------------------------

                1               2               3               4               5               6               7               8               9              10
               11              12              13              14              15              16              17              18              19              20
               21              22              23              24              25
 ................................................................................................................................................................
   1  1.026954300     .9817497552     .9361475884     .9130424128     .9029174692     .8979013722     .8951406377     .8934476048     .8923273958     .8915602626    
      .8910285725     .8906588189     .8904017896     .8902243805     .8901058554     .8900559119     .8901256338     .8903329393     .8907472771     .8914789246    
      .8926783776     .8945301055     .8972446633     .9011184063     .9075958743    
1
  CONCENTRATION IN LAYER   7 AT END OF TIME STEP 100 IN STRESS PERIOD    1
  ---------------------------------------------------------------------------

                1               2               3               4               5               6               7               8               9              10
               11              12              13              14              15              16              17              18              19              20
               21              22              23              24              25
 ................................................................................................................................................................
   1  1.026954300     1.001729769     .9654899077     .9387333798     .9222417796     .9118140322     .9049493838     .9003022072     .8971039245     .8948860053    
      .8933436704     .8922703111     .8915235147     .8910051756     .8906488811     .8904242010     .8903938215     .8905251860     .8908804799     .8915695335    
      .8927395716     .8945714746     .8972727137     .9011375195     .9076075702    
1
  CONCENTRATION IN LAYER   8 AT END OF TIME STEP 100 IN STRESS PERIOD    1
  ---------------------------------------------------------------------------

                1               2               3               4               5               6               7               8               9              10
               11              12              13              14              15              16              17              18              19              20
               21              22              23              24              25
 ................................................................................................................................................................
   1  1.026954300     1.012373966     .9850496467     .9583909723     .9380178464     .9234592614     .9132454726     .9061236356     .9011658063     .8977150387    
      .8953130797     .8936411614     .8924777225     .8916693640     .8911109455     .8907403889     .8906123758     .8906933469     .8909958219     .8916468162    
      .8927914644     .8946065550     .8972965338     .9011537670     .9076175185    
1
  CONCENTRATION IN LAYER   9 AT END OF TIME STEP 100 IN STRESS PERIOD    1
  ---------------------------------------------------------------------------

                1               2               3               4               5               6               7               8               9              10
               11              12              13              14              15              16              17              18              19              20
               21              22              23              24              25
 ................................................................................................................................................................
   1  1.026954300     1.017792768     .9967400897     .9714774884     .9491014681     .9318153895     .9192465050     .9103476146     .9041161349     .8997704388    
      .8967439818     .8946371626     .8931710018     .8921519289     .8914466864     .8909709345     .8907678811     .8908168230     .8910807632     .8917031503    
      .8928290767     .8946319717     .8973138149     .9011655641     .9076247458    
1
  CONCENTRATION IN LAYER  10 AT END OF TIME STEP 100 IN STRESS PERIOD    1
  ---------------------------------------------------------------------------

                1               2               3               4               5               6               7               8               9              10
               11              12              13              14              15              16              17              18              19              20
               21              22              23              24              25
 ................................................................................................................................................................
   1  1.026954300     1.020068488     1.002155590     .9779722492     .9548013902     .9361738779     .9223927706     .9125664247     .9056669302     .9008510201    
      .8974962664     .8951607987     .8935354829     .8924056302     .8916232022     .8910923322     .8908488192     .8908820117     .8911257657     .8917328257    
      .8928488277     .8946453094     .8973228921     .9011717618     .9076285449    

 CONCENTRATION WILL BE SAVED ON UNIT **** AT END OF TIME STEP  100, STRESS PERIOD    1


  MASS BUDGET FOR ENTIRE MODEL AT END OF TIME STEP  100, STRESS PERIOD   1
  ---------------------------------------------------------------------------------------------------

     CUMULATIVE MASS      M       RATES FOR THIS TIME STEP      M/T          PACKAGE NAME    
     ------------------                 ------------------------                     ----------------

           IN:                                      IN:
           ---                                      ---
     STORAGE-AQUEOUS =          47.3896       STORAGE-AQUEOUS =       3.7038E-03     MST                              
                 CHD =           0.0000                   CHD =           0.0000     SSM_CHD                          
                 CHD =          14.8310                   CHD =       7.4155E-03     SSM_CHDTAIL                      
                 CNC =         354.8094                   CNC =           0.1780     CNC                              

            TOTAL IN =         417.0300              TOTAL IN =           0.1891

          OUT:                                     OUT:
          ----                                     ----
     STORAGE-AQUEOUS =       9.8644E-04       STORAGE-AQUEOUS =       2.4507E-09     MST                              
                 CHD =         417.0290                   CHD =           0.1891     SSM_CHD                          
                 CHD =           0.0000                   CHD =           0.0000     SSM_CHDTAIL                      
                 CNC =           0.0000                   CNC =           0.0000     CNC                              

           TOTAL OUT =         417.0300             TOTAL OUT =           0.1891

            IN - OUT =       4.0596E-07              IN - OUT =      -1.8333E-09

 PERCENT DISCREPANCY =           0.00     PERCENT DISCREPANCY =          -0.00




         TIME SUMMARY AT END OF TIME STEP  100 IN STRESS PERIOD    1
                    SECONDS     MINUTES      HOURS       DAYS        YEARS
                    -----------------------------------------------------------
   TIME STEP LENGTH 1.72800E+06  28800.      480.00      20.000     5.47570E-02
 STRESS PERIOD TIME 1.72800E+08 2.88000E+06  48000.      2000.0      5.4757    
         TOTAL TIME 1.72800E+08 2.88000E+06  48000.      2000.0      5.4757    


end timestep

