                                   MODFLOW 6
                U.S. GEOLOGICAL SURVEY MODULAR HYDROLOGIC MODEL
                       GROUNDWATER TRANSPORT MODEL (GWT)
                VERSION 6.5.0.dev0+prt (preliminary) 10/07/2023
                               ***DEVELOP MODE***

   MODFLOW 6 compiled Oct 07 2023 02:19:02 with Intel(R) Fortran Intel(R) 64
   Compiler Classic for applications running on Intel(R) 64, Version 2021.7.0
                             Build 20220726_000000

This software is preliminary or provisional and is subject to 
revision. It is being provided to meet the need for timely best 
science. The software has not received final approval by the U.S. 
Geological Survey (USGS). No warranty, expressed or implied, is made 
by the USGS or the U.S. Government as to the functionality of the 
software and related material nor shall the fact of release 
constitute any such warranty. The software is provided on the 
condition that neither the USGS nor the U.S. Government shall be held 
liable for any damages resulting from the authorized or unauthorized 
use of the software.


As a work of the United States Government, this USGS product is 
in the public domain within the United States. You can copy, 
modify, distribute, and perform the work, even for commercial 
purposes, all without asking permission. Additionally, USGS 
waives copyright and related rights in the work worldwide 
through CC0 1.0 Universal Public Domain Dedication 
(https://creativecommons.org/publicdomain/zero/1.0/).

The following GNU Lesser General Public License (LGPL) libraries
are used in this USGS product:

    SPARSKIT version 2.0
      ilut, luson, and qsplit 
      (https://www-users.cse.umn.edu/~saad/software/SPARSKIT/)

    RCM - Reverse Cuthill McKee Ordering
      (https://people.math.sc.edu/Burkardt/f_src/rcm/rcm.html)

    BLAS - Basic Linear Algebra Subprograms Level 1
      (https://people.math.sc.edu/Burkardt/f_src/blas1_d/blas1_d.html)

    SPARSEKIT - Sparse Matrix Utility Package
      amux, dperm, dvperm, rperm, and cperm
      (https://people.sc.fsu.edu/~jburkardt/f77_src/sparsekit/sparsekit.html)

The following BSD-3 License libraries are used in this USGS product:

    Modern Fortran DAG Library
      Copyright (c) 2018, Jacob Williams
      All rights reserved.
      (https://github.com/jacobwilliams/daglib)

MODFLOW 6 compiler options: /Isrc\libmf6core.a.p /Isrc /I..\src
/Isrc\libmf6_external.a.p /MTd /nologo /warn:general /warn:truncated_source
/stand:f08 /Zi /traceback /O2 /fpe:0 /heap-arrays:0 /traceback /fpp
/Qdiag-disable:7416 /Qdiag-disable:7025 /Qdiag-disable:5268
/Fdsrc\libmf6core.a.p\Utilities_compilerversion.F90.pdb
/module:src\libmf6core.a.p
/Fosrc/libmf6core.a.p/Utilities_compilerversion.F90.obj /c

System command used to initiate simulation:
c:\Users\portega\anaconda3\envs\mf6rtm\python.exe -m ipykernel_launcher --f=c:\Users\portega\AppData\Roaming\jupyter\runtime\kernel-v2-17404iCBvKc1FbHvz.json

MODFLOW was compiled using uniform precision.

Real Variables
  KIND: 8
  TINY (smallest non-zero value):    2.225074-308
  HUGE (largest value):    1.797693+308
  PRECISION: 15
  SIZE IN BITS: 64

Integer Variables
  KIND: 4
  HUGE (largest value): 2147483647
  SIZE IN BITS: 32

Long Integer Variables
  KIND: 8
  HUGE (largest value): 9223372036854775807
  SIZE IN BITS: 64

Logical Variables
  KIND: 4
  SIZE IN BITS: 32
 
 NAMEFILE OPTIONS:
 END NAMEFILE OPTIONS:

 DIS -- STRUCTURED GRID DISCRETIZATION PACKAGE, VERSION 2 : 3/27/2014 - INPUT READ FROM MEMPATH: __INPUT__/FE/DIS                                  


 DSP-- DISPERSION PACKAGE, VERSION 1, 1/24/2018 INPUT READ FROM MEMPATH: __INPUT__/FE/DSP                                  


 Setting Discretization Options
    Model length unit [0=UND, 1=FEET, 2=METERS, 3=CENTIMETERS] set as 2
 End Setting Discretization Options

 Setting Discretization Dimensions
    NLAY = 10
    NROW = 1
    NCOL = 25
 End Setting Discretization Dimensions

 Setting Discretization Griddata
    DELR set from input file
    DELC set from input file
    TOP set from input file
    BOTM set from input file
    IDOMAIN set from input file
 End Setting Discretization Griddata


 FMI -- FLOW MODEL INTERFACE,' VERSION 2, 8/17/2023
  FLOWS PROVIDED BY A GWF MODEL IN THIS SIMULATION

 ADV-- ADVECTION PACKAGE, VERSION 1, 8/25/2017 INPUT READ FROM UNIT 6088


 # File generated by Flopy version 3.5.0.dev0 on 07/12/2024 at 09:44:05.
 PROCESSING ADVECTION OPTIONS
    ADVECTION WEIGHTING SCHEME HAS BEEN SET TO: TVD
 END OF ADVECTION OPTIONS
 Setting DSP Options
    XT3D formulation [0=INACTIVE, 1=ACTIVE, 3=ACTIVE RHS] set to: 0
 End Setting DSP Options

 Setting DSP Griddata
    ALH set from input file
    ATH1 set from input file
    ATV set from input file
 End Setting DSP Griddata


 CNC   -- CNC PACKAGE, VERSION 8, 2/22/2014 INPUT READ FROM UNIT 6122
 # File generated by Flopy version 3.5.0.dev0 on 07/12/2024 at 09:44:05.

 PROCESSING CNC OPTIONS
    CNC FLOWS WILL BE PRINTED TO LISTING FILE.
    FLOWS WILL BE SAVED TO BUDGET FILE SPECIFIED IN OUTPUT CONTROL
 END OF CNC OPTIONS

 PROCESSING CNC DIMENSIONS
    MAXBOUND =       7
 END OF CNC DIMENSIONS

 IC -- INITIAL CONDITIONS PACKAGE, VERSION 8, 3/28/2015 INPUT READ FROM UNIT 6086
 # File generated by Flopy version 3.5.0.dev0 on 07/12/2024 at 09:44:05.
 PROCESSING GRIDDATA

 OPENED Fe.ic_strt_layer1.txt
 FILE TYPE:OPEN/CLOSE   UNIT 6628   STATUS:OLD                 
 FORMAT:FORMATTED              ACCESS:SEQUENTIAL          
 ACTION:READ                


 OPENED Fe.ic_strt_layer2.txt
 FILE TYPE:OPEN/CLOSE   UNIT 6629   STATUS:OLD                 
 FORMAT:FORMATTED              ACCESS:SEQUENTIAL          
 ACTION:READ                


 OPENED Fe.ic_strt_layer3.txt
 FILE TYPE:OPEN/CLOSE   UNIT 6630   STATUS:OLD                 
 FORMAT:FORMATTED              ACCESS:SEQUENTIAL          
 ACTION:READ                


 OPENED Fe.ic_strt_layer4.txt
 FILE TYPE:OPEN/CLOSE   UNIT 6631   STATUS:OLD                 
 FORMAT:FORMATTED              ACCESS:SEQUENTIAL          
 ACTION:READ                


 OPENED Fe.ic_strt_layer5.txt
 FILE TYPE:OPEN/CLOSE   UNIT 6632   STATUS:OLD                 
 FORMAT:FORMATTED              ACCESS:SEQUENTIAL          
 ACTION:READ                


 OPENED Fe.ic_strt_layer6.txt
 FILE TYPE:OPEN/CLOSE   UNIT 6633   STATUS:OLD                 
 FORMAT:FORMATTED              ACCESS:SEQUENTIAL          
 ACTION:READ                


 OPENED Fe.ic_strt_layer7.txt
 FILE TYPE:OPEN/CLOSE   UNIT 6634   STATUS:OLD                 
 FORMAT:FORMATTED              ACCESS:SEQUENTIAL          
 ACTION:READ                


 OPENED Fe.ic_strt_layer8.txt
 FILE TYPE:OPEN/CLOSE   UNIT 6635   STATUS:OLD                 
 FORMAT:FORMATTED              ACCESS:SEQUENTIAL          
 ACTION:READ                


 OPENED Fe.ic_strt_layer9.txt
 FILE TYPE:OPEN/CLOSE   UNIT 6636   STATUS:OLD                 
 FORMAT:FORMATTED              ACCESS:SEQUENTIAL          
 ACTION:READ                


 OPENED Fe.ic_strt_layer10.txt
 FILE TYPE:OPEN/CLOSE   UNIT 6637   STATUS:OLD                 
 FORMAT:FORMATTED              ACCESS:SEQUENTIAL          
 ACTION:READ                

 END PROCESSING GRIDDATA

 MST -- MOBILE STORAGE AND TRANSFER PACKAGE, VERSION 1, 7/29/2020 INPUT READ FROM UNIT 6087


 # File generated by Flopy version 3.5.0.dev0 on 07/12/2024 at 09:44:05.
 PROCESSING MOBILE STORAGE AND TRANSFER OPTIONS
 END OF MOBILE STORAGE AND TRANSFER OPTIONS
 PROCESSING GRIDDATA

 OPENED Fe.mst_porosity.txt
 FILE TYPE:OPEN/CLOSE   UNIT 6638   STATUS:OLD                 
 FORMAT:FORMATTED              ACCESS:SEQUENTIAL          
 ACTION:READ                

 END PROCESSING GRIDDATA

 SSM -- SOURCE-SINK MIXING PACKAGE, VERSION 1, 8/25/2017 INPUT READ FROM UNIT 6120


 # File generated by Flopy version 3.5.0.dev0 on 07/12/2024 at 09:44:05.
 PROCESSING SSM OPTIONS
    SSM FLOW INFORMATION WILL BE PRINTED TO LISTING FILE WHENEVER ICBCFL IS NOT ZERO.
    CELL-BY-CELL FLOW INFORMATION WILL BE SAVED TO BINARY FILE WHENEVER ICBCFL IS NOT ZERO.
 END OF SSM OPTIONS

 OPENED Fe.ssm_sources.txt
 FILE TYPE:OPEN/CLOSE   UNIT 6639   STATUS:OLD                 
 FORMAT:FORMATTED              ACCESS:SEQUENTIAL          
 ACTION:READ                

 PROCESSING SOURCES
 AUX SOURCE DETECTED.
    USING AUX COLUMN 8 IN PACKAGE CHD
 END PROCESSING SOURCES
 OPTIONAL FILEINPUT BLOCK NOT FOUND.  CONTINUING.
      THE LAST TIME STEP WILL BE PRINTED
      THE LAST TIME STEP WILL BE PRINTED
 # File generated by Flopy version 3.5.0.dev0 on 07/12/2024 at 09:44:05.

 PROCESSING OC OPTIONS

    BUDGET INFORMATION WILL BE WRITTEN TO:
      UNIT NUMBER: 6640
      FILE NAME: Fe.cbb

 OPENED Fe.cbb
 FILE TYPE:DATA(BINARY)   UNIT 6640   STATUS:REPLACE             
 FORMAT:UNFORMATTED            ACCESS:STREAM              
 ACTION:READWRITE           

    CONCENTRATION INFORMATION WILL BE WRITTEN TO:
      UNIT NUMBER: 6641
      FILE NAME: Fe.ucn

 OPENED Fe.ucn
 FILE TYPE:DATA(BINARY)   UNIT 6641   STATUS:REPLACE             
 FORMAT:UNFORMATTED            ACCESS:STREAM              
 ACTION:READWRITE           

 END OF OC OPTIONS

start timestep kper="1" kstp="1" mode="normal"


 BEGIN READING OUTPUT CONTROL FOR STRESS PERIOD 1
      ALL TIME STEPS WILL BE SAVED
      ALL TIME STEPS WILL BE SAVED
      ALL TIME STEPS WILL BE PRINTED
      ALL TIME STEPS WILL BE PRINTED

 END READING OUTPUT CONTROL FOR STRESS PERIOD 1

 OPENED Fe.cnc_stress_period_data_1.txt
 FILE TYPE:OPEN/CLOSE   UNIT 6733   STATUS:OLD                 
 FORMAT:FORMATTED              ACCESS:SEQUENTIAL          
 ACTION:READ                

 UBDSV06 SAVING  SOURCE-SINK MIX IN MODEL FE               PACKAGE FE              CONNECTED TO MODEL FE               PACKAGE SSM              ON UNIT   6640 AT TIME STEP      1, STRESS PERIOD      1
 UBDSV06 SAVING              CNC IN MODEL FE               PACKAGE FE              CONNECTED TO MODEL FE               PACKAGE CNC              ON UNIT   6640 AT TIME STEP      1, STRESS PERIOD      1

 SSM PACKAGE (SSM) FLOW RATES   PERIOD      1   STEP        1
 ------------------------------------------------------------------------------------------------
   NUMBER   CELLID                   BOUND Q        SSM CONC          RATE         PACKAGE NAME  
 ------------------------------------------------------------------------------------------------
     1      (1,1,1)               2.08333361E-02  30.509715       0.63561914           CHD       
     2      (2,1,1)               2.08333361E-02  30.509715       0.63561914           CHD       
     3      (3,1,1)               2.08333361E-02  30.509715       0.63561914           CHD       
     4      (4,1,1)               0.0000000       0.0000000       0.0000000            CHD       
     5      (5,1,1)               0.0000000       0.0000000       0.0000000            CHD       
     6      (6,1,1)               0.0000000       0.0000000       0.0000000            CHD       
     7      (7,1,1)               0.0000000       0.0000000       0.0000000            CHD       
     8      (8,1,1)               0.0000000       0.0000000       0.0000000            CHD       
     9      (9,1,1)               0.0000000       0.0000000       0.0000000            CHD       
     10     (10,1,1)              0.0000000       0.0000000       0.0000000            CHD       
     11     (1,1,25)             -2.08333402E-02  2.93864343E-02 -6.12217584E-04       CHD       
     12     (2,1,25)             -2.08333402E-02  2.93864343E-02 -6.12217585E-04       CHD       
     13     (3,1,25)             -2.08333402E-02  2.93864343E-02 -6.12217585E-04       CHD       
     14     (4,1,25)             -2.08333403E-02  2.93864343E-02 -6.12217586E-04       CHD       
     15     (5,1,25)             -2.08333403E-02  2.93864343E-02 -6.12217586E-04       CHD       
     16     (6,1,25)             -2.08333403E-02  2.93864343E-02 -6.12217587E-04       CHD       
     17     (7,1,25)             -2.08333403E-02  2.93864343E-02 -6.12217587E-04       CHD       
     18     (8,1,25)             -2.08333403E-02  2.93864343E-02 -6.12217587E-04       CHD       
     19     (9,1,25)             -2.08333403E-02  2.93864343E-02 -6.12217587E-04       CHD       
     20     (10,1,25)            -2.08333403E-02  2.93864343E-02 -6.12217587E-04       CHD       
 ------------------------------------------------------------------------------------------------




 CNC PACKAGE (CNC) FLOW RATES   PERIOD      1   STEP        1
 -----------------------------------------------
   NUMBER   CELLID                    RATE      
 -----------------------------------------------
     1      (4,1,1)              -0.44496914    
     2      (5,1,1)               6.32031311E-04
     3      (6,1,1)               1.07488046E-03
     4      (7,1,1)               1.25155472E-03
     5      (8,1,1)               1.32331403E-03
     6      (9,1,1)               1.35211241E-03
     7      (10,1,1)              1.36225733E-03
 -----------------------------------------------



1
  CONCENTRATION IN LAYER   1 AT END OF TIME STEP   1 IN STRESS PERIOD    1
  ---------------------------------------------------------------------------

                1               2               3               4               5               6               7               8               9              10
               11              12              13              14              15              16              17              18              19              20
               21              22              23              24              25
 ................................................................................................................................................................
   1  3.357922407     .6062286950     *************** *************** *************** *************** *************** *************** *************** ***************
      *************** *************** *************** *************** *************** *************** *************** *************** *************** ***************
      *************** *************** *************** *************** ***************
1
  CONCENTRATION IN LAYER   2 AT END OF TIME STEP   1 IN STRESS PERIOD    1
  ---------------------------------------------------------------------------

                1               2               3               4               5               6               7               8               9              10
               11              12              13              14              15              16              17              18              19              20
               21              22              23              24              25
 ................................................................................................................................................................
   1  3.051499899     .5354608166     *************** *************** *************** *************** *************** *************** *************** ***************
      *************** *************** *************** *************** *************** *************** *************** *************** *************** ***************
      *************** *************** *************** *************** ***************
1
  CONCENTRATION IN LAYER   3 AT END OF TIME STEP   1 IN STRESS PERIOD    1
  ---------------------------------------------------------------------------

                1               2               3               4               5               6               7               8               9              10
               11              12              13              14              15              16              17              18              19              20
               21              22              23              24              25
 ................................................................................................................................................................
   1  2.187368321     .3858000053     *************** *************** *************** *************** *************** *************** *************** ***************
      *************** *************** *************** *************** *************** *************** *************** *************** *************** ***************
      *************** *************** *************** *************** ***************
1
  CONCENTRATION IN LAYER   4 AT END OF TIME STEP   1 IN STRESS PERIOD    1
  ---------------------------------------------------------------------------

                1               2               3               4               5               6               7               8               9              10
               11              12              13              14              15              16              17              18              19              20
               21              22              23              24              25
 ................................................................................................................................................................
   1  *************** .1757378567     *************** *************** *************** *************** *************** *************** *************** ***************
      *************** *************** *************** *************** *************** *************** *************** *************** *************** ***************
      *************** *************** *************** *************** ***************
1
  CONCENTRATION IN LAYER   5 AT END OF TIME STEP   1 IN STRESS PERIOD    1
  ---------------------------------------------------------------------------

                1               2               3               4               5               6               7               8               9              10
               11              12              13              14              15              16              17              18              19              20
               21              22              23              24              25
 ................................................................................................................................................................
   1  *************** *************** *************** *************** *************** *************** *************** *************** *************** ***************
      *************** *************** *************** *************** *************** *************** *************** *************** *************** ***************
      *************** *************** *************** *************** ***************
1
  CONCENTRATION IN LAYER   6 AT END OF TIME STEP   1 IN STRESS PERIOD    1
  ---------------------------------------------------------------------------

                1               2               3               4               5               6               7               8               9              10
               11              12              13              14              15              16              17              18              19              20
               21              22              23              24              25
 ................................................................................................................................................................
   1  *************** *************** *************** *************** *************** *************** *************** *************** *************** ***************
      *************** *************** *************** *************** *************** *************** *************** *************** *************** ***************
      *************** *************** *************** *************** ***************
1
  CONCENTRATION IN LAYER   7 AT END OF TIME STEP   1 IN STRESS PERIOD    1
  ---------------------------------------------------------------------------

                1               2               3               4               5               6               7               8               9              10
               11              12              13              14              15              16              17              18              19              20
               21              22              23              24              25
 ................................................................................................................................................................
   1  *************** *************** *************** *************** *************** *************** *************** *************** *************** ***************
      *************** *************** *************** *************** *************** *************** *************** *************** *************** ***************
      *************** *************** *************** *************** ***************
1
  CONCENTRATION IN LAYER   8 AT END OF TIME STEP   1 IN STRESS PERIOD    1
  ---------------------------------------------------------------------------

                1               2               3               4               5               6               7               8               9              10
               11              12              13              14              15              16              17              18              19              20
               21              22              23              24              25
 ................................................................................................................................................................
   1  *************** *************** *************** *************** *************** *************** *************** *************** *************** ***************
      *************** *************** *************** *************** *************** *************** *************** *************** *************** ***************
      *************** *************** *************** *************** ***************
1
  CONCENTRATION IN LAYER   9 AT END OF TIME STEP   1 IN STRESS PERIOD    1
  ---------------------------------------------------------------------------

                1               2               3               4               5               6               7               8               9              10
               11              12              13              14              15              16              17              18              19              20
               21              22              23              24              25
 ................................................................................................................................................................
   1  *************** *************** *************** *************** *************** *************** *************** *************** *************** ***************
      *************** *************** *************** *************** *************** *************** *************** *************** *************** ***************
      *************** *************** *************** *************** ***************
1
  CONCENTRATION IN LAYER  10 AT END OF TIME STEP   1 IN STRESS PERIOD    1
  ---------------------------------------------------------------------------

                1               2               3               4               5               6               7               8               9              10
               11              12              13              14              15              16              17              18              19              20
               21              22              23              24              25
 ................................................................................................................................................................
   1  *************** *************** *************** *************** *************** *************** *************** *************** *************** ***************
      *************** *************** *************** *************** *************** *************** *************** *************** *************** ***************
      *************** *************** *************** *************** ***************

 CONCENTRATION WILL BE SAVED ON UNIT 6641 AT END OF TIME STEP    1, STRESS PERIOD    1


  MASS BUDGET FOR ENTIRE MODEL AT END OF TIME STEP    1, STRESS PERIOD   1
  ---------------------------------------------------------------------------------------------------

     CUMULATIVE MASS      M       RATES FOR THIS TIME STEP      M/T          PACKAGE NAME    
     ------------------                 ------------------------                     ----------------

           IN:                                      IN:
           ---                                      ---
     STORAGE-AQUEOUS =       3.9177E-08       STORAGE-AQUEOUS =       3.9177E-09     MST                              
                 CHD =          19.0686                   CHD =           1.9069     SSM_CHD                          
                 CNC =       6.9962E-02                   CNC =       6.9962E-03     CNC                              

            TOTAL IN =          19.1385              TOTAL IN =           1.9139

          OUT:                                     OUT:
          ----                                     ----
     STORAGE-AQUEOUS =          14.6276       STORAGE-AQUEOUS =           1.4628     MST                              
                 CHD =       6.1222E-02                   CHD =       6.1222E-03     SSM_CHD                          
                 CNC =           4.4497                   CNC =           0.4450     CNC                              

           TOTAL OUT =          19.1385             TOTAL OUT =           1.9139

            IN - OUT =       1.2150E-09              IN - OUT =       1.2150E-10

 PERCENT DISCREPANCY =           0.00     PERCENT DISCREPANCY =           0.00




         TIME SUMMARY AT END OF TIME STEP    1 IN STRESS PERIOD    1
                    SECONDS     MINUTES      HOURS       DAYS        YEARS
                    -----------------------------------------------------------
   TIME STEP LENGTH 8.64000E+05  14400.      240.00      10.000     2.73785E-02
 STRESS PERIOD TIME 8.64000E+05  14400.      240.00      10.000     2.73785E-02
         TOTAL TIME 8.64000E+05  14400.      240.00      10.000     2.73785E-02


end timestep


start timestep kper="1" kstp="2" mode="normal"

 UBDSV06 SAVING  SOURCE-SINK MIX IN MODEL FE               PACKAGE FE              CONNECTED TO MODEL FE               PACKAGE SSM              ON UNIT   6640 AT TIME STEP      2, STRESS PERIOD      1
 UBDSV06 SAVING              CNC IN MODEL FE               PACKAGE FE              CONNECTED TO MODEL FE               PACKAGE CNC              ON UNIT   6640 AT TIME STEP      2, STRESS PERIOD      1

 SSM PACKAGE (SSM) FLOW RATES   PERIOD      1   STEP        2
 ------------------------------------------------------------------------------------------------
   NUMBER   CELLID                   BOUND Q        SSM CONC          RATE         PACKAGE NAME  
 ------------------------------------------------------------------------------------------------
     1      (1,1,1)               2.08333319E-02  30.509715       0.63561901           CHD       
     2      (2,1,1)               2.08333319E-02  30.509715       0.63561901           CHD       
     3      (3,1,1)               2.08333319E-02  30.509715       0.63561901           CHD       
     4      (4,1,1)               0.0000000       0.0000000       0.0000000            CHD       
     5      (5,1,1)               0.0000000       0.0000000       0.0000000            CHD       
     6      (6,1,1)               0.0000000       0.0000000       0.0000000            CHD       
     7      (7,1,1)               0.0000000       0.0000000       0.0000000            CHD       
     8      (8,1,1)               0.0000000       0.0000000       0.0000000            CHD       
     9      (9,1,1)               0.0000000       0.0000000       0.0000000            CHD       
     10     (10,1,1)              0.0000000       0.0000000       0.0000000            CHD       
     11     (1,1,25)             -2.08333370E-02  2.93864343E-02 -6.12217489E-04       CHD       
     12     (2,1,25)             -2.08333370E-02  2.93864343E-02 -6.12217490E-04       CHD       
     13     (3,1,25)             -2.08333370E-02  2.93864343E-02 -6.12217490E-04       CHD       
     14     (4,1,25)             -2.08333370E-02  2.93864343E-02 -6.12217490E-04       CHD       
     15     (5,1,25)             -2.08333370E-02  2.93864343E-02 -6.12217490E-04       CHD       
     16     (6,1,25)             -2.08333370E-02  2.93864343E-02 -6.12217490E-04       CHD       
     17     (7,1,25)             -2.08333370E-02  2.93864343E-02 -6.12217491E-04       CHD       
     18     (8,1,25)             -2.08333370E-02  2.93864343E-02 -6.12217491E-04       CHD       
     19     (9,1,25)             -2.08333370E-02  2.93864343E-02 -6.12217491E-04       CHD       
     20     (10,1,25)            -2.08333370E-02  2.93864343E-02 -6.12217490E-04       CHD       
 ------------------------------------------------------------------------------------------------




 CNC PACKAGE (CNC) FLOW RATES   PERIOD      1   STEP        2
 -----------------------------------------------
   NUMBER   CELLID                    RATE      
 -----------------------------------------------
     1      (4,1,1)              -0.44645568    
     2      (5,1,1)               6.23213931E-04
     3      (6,1,1)               1.07072368E-03
     4      (7,1,1)               1.24963430E-03
     5      (8,1,1)               1.32242170E-03
     6      (9,1,1)               1.35167925E-03
     7      (10,1,1)              1.36199793E-03
 -----------------------------------------------



1
  CONCENTRATION IN LAYER   1 AT END OF TIME STEP   2 IN STRESS PERIOD    1
  ---------------------------------------------------------------------------

                1               2               3               4               5               6               7               8               9              10
               11              12              13              14              15              16              17              18              19              20
               21              22              23              24              25
 ................................................................................................................................................................
   1  3.371357830     .6108456496     *************** *************** *************** *************** *************** *************** *************** ***************
      *************** *************** *************** *************** *************** *************** *************** *************** *************** ***************
      *************** *************** *************** *************** ***************
1
  CONCENTRATION IN LAYER   2 AT END OF TIME STEP   2 IN STRESS PERIOD    1
  ---------------------------------------------------------------------------

                1               2               3               4               5               6               7               8               9              10
               11              12              13              14              15              16              17              18              19              20
               21              22              23              24              25
 ................................................................................................................................................................
   1  3.062948706     .5394466741     *************** *************** *************** *************** *************** *************** *************** ***************
      *************** *************** *************** *************** *************** *************** *************** *************** *************** ***************
      *************** *************** *************** *************** ***************
1
  CONCENTRATION IN LAYER   3 AT END OF TIME STEP   2 IN STRESS PERIOD    1
  ---------------------------------------------------------------------------

                1               2               3               4               5               6               7               8               9              10
               11              12              13              14              15              16              17              18              19              20
               21              22              23              24              25
 ................................................................................................................................................................
   1  2.194416518     .3886035578     *************** *************** *************** *************** *************** *************** *************** ***************
      *************** *************** *************** *************** *************** *************** *************** *************** *************** ***************
      *************** *************** *************** *************** ***************
1
  CONCENTRATION IN LAYER   4 AT END OF TIME STEP   2 IN STRESS PERIOD    1
  ---------------------------------------------------------------------------

                1               2               3               4               5               6               7               8               9              10
               11              12              13              14              15              16              17              18              19              20
               21              22              23              24              25
 ................................................................................................................................................................
   1  *************** .1771399871     *************** *************** *************** *************** *************** *************** *************** ***************
      *************** *************** *************** *************** *************** *************** *************** *************** *************** ***************
      *************** *************** *************** *************** ***************
1
  CONCENTRATION IN LAYER   5 AT END OF TIME STEP   2 IN STRESS PERIOD    1
  ---------------------------------------------------------------------------

                1               2               3               4               5               6               7               8               9              10
               11              12              13              14              15              16              17              18              19              20
               21              22              23              24              25
 ................................................................................................................................................................
   1  *************** *************** *************** *************** *************** *************** *************** *************** *************** ***************
      *************** *************** *************** *************** *************** *************** *************** *************** *************** ***************
      *************** *************** *************** *************** ***************
1
  CONCENTRATION IN LAYER   6 AT END OF TIME STEP   2 IN STRESS PERIOD    1
  ---------------------------------------------------------------------------

                1               2               3               4               5               6               7               8               9              10
               11              12              13              14              15              16              17              18              19              20
               21              22              23              24              25
 ................................................................................................................................................................
   1  *************** *************** *************** *************** *************** *************** *************** *************** *************** ***************
      *************** *************** *************** *************** *************** *************** *************** *************** *************** ***************
      *************** *************** *************** *************** ***************
1
  CONCENTRATION IN LAYER   7 AT END OF TIME STEP   2 IN STRESS PERIOD    1
  ---------------------------------------------------------------------------

                1               2               3               4               5               6               7               8               9              10
               11              12              13              14              15              16              17              18              19              20
               21              22              23              24              25
 ................................................................................................................................................................
   1  *************** *************** *************** *************** *************** *************** *************** *************** *************** ***************
      *************** *************** *************** *************** *************** *************** *************** *************** *************** ***************
      *************** *************** *************** *************** ***************
1
  CONCENTRATION IN LAYER   8 AT END OF TIME STEP   2 IN STRESS PERIOD    1
  ---------------------------------------------------------------------------

                1               2               3               4               5               6               7               8               9              10
               11              12              13              14              15              16              17              18              19              20
               21              22              23              24              25
 ................................................................................................................................................................
   1  *************** *************** *************** *************** *************** *************** *************** *************** *************** ***************
      *************** *************** *************** *************** *************** *************** *************** *************** *************** ***************
      *************** *************** *************** *************** ***************
1
  CONCENTRATION IN LAYER   9 AT END OF TIME STEP   2 IN STRESS PERIOD    1
  ---------------------------------------------------------------------------

                1               2               3               4               5               6               7               8               9              10
               11              12              13              14              15              16              17              18              19              20
               21              22              23              24              25
 ................................................................................................................................................................
   1  *************** *************** *************** *************** *************** *************** *************** *************** *************** ***************
      *************** *************** *************** *************** *************** *************** *************** *************** *************** ***************
      *************** *************** *************** *************** ***************
1
  CONCENTRATION IN LAYER  10 AT END OF TIME STEP   2 IN STRESS PERIOD    1
  ---------------------------------------------------------------------------

                1               2               3               4               5               6               7               8               9              10
               11              12              13              14              15              16              17              18              19              20
               21              22              23              24              25
 ................................................................................................................................................................
   1  *************** *************** *************** *************** *************** *************** *************** *************** *************** ***************
      *************** *************** *************** *************** *************** *************** *************** *************** *************** ***************
      *************** *************** *************** *************** ***************

 CONCENTRATION WILL BE SAVED ON UNIT 6641 AT END OF TIME STEP    2, STRESS PERIOD    1


  MASS BUDGET FOR ENTIRE MODEL AT END OF TIME STEP    2, STRESS PERIOD   1
  ---------------------------------------------------------------------------------------------------

     CUMULATIVE MASS      M       RATES FOR THIS TIME STEP      M/T          PACKAGE NAME    
     ------------------                 ------------------------                     ----------------

           IN:                                      IN:
           ---                                      ---
     STORAGE-AQUEOUS =       6.0739E-08       STORAGE-AQUEOUS =       2.1562E-09     MST                              
                 CHD =          38.1371                   CHD =           1.9069     SSM_CHD                          
                 CNC =           0.1398                   CNC =       6.9797E-03     CNC                              

            TOTAL IN =          38.2769              TOTAL IN =           1.9138

          OUT:                                     OUT:
          ----                                     ----
     STORAGE-AQUEOUS =          29.2402       STORAGE-AQUEOUS =           1.4613     MST                              
                 CHD =           0.1224                   CHD =       6.1222E-03     SSM_CHD                          
                 CNC =           8.9142                   CNC =           0.4465     CNC                              

           TOTAL OUT =          38.2769             TOTAL OUT =           1.9138

            IN - OUT =       2.4180E-09              IN - OUT =       1.2030E-10

 PERCENT DISCREPANCY =           0.00     PERCENT DISCREPANCY =           0.00




         TIME SUMMARY AT END OF TIME STEP    2 IN STRESS PERIOD    1
                    SECONDS     MINUTES      HOURS       DAYS        YEARS
                    -----------------------------------------------------------
   TIME STEP LENGTH 8.64000E+05  14400.      240.00      10.000     2.73785E-02
 STRESS PERIOD TIME 1.72800E+06  28800.      480.00      20.000     5.47570E-02
         TOTAL TIME 1.72800E+06  28800.      480.00      20.000     5.47570E-02


end timestep


start timestep kper="1" kstp="3" mode="normal"

 UBDSV06 SAVING  SOURCE-SINK MIX IN MODEL FE               PACKAGE FE              CONNECTED TO MODEL FE               PACKAGE SSM              ON UNIT   6640 AT TIME STEP      3, STRESS PERIOD      1
 UBDSV06 SAVING              CNC IN MODEL FE               PACKAGE FE              CONNECTED TO MODEL FE               PACKAGE CNC              ON UNIT   6640 AT TIME STEP      3, STRESS PERIOD      1

 SSM PACKAGE (SSM) FLOW RATES   PERIOD      1   STEP        3
 ------------------------------------------------------------------------------------------------
   NUMBER   CELLID                   BOUND Q        SSM CONC          RATE         PACKAGE NAME  
 ------------------------------------------------------------------------------------------------
     1      (1,1,1)               2.08333325E-02  30.509715       0.63561903           CHD       
     2      (2,1,1)               2.08333325E-02  30.509715       0.63561903           CHD       
     3      (3,1,1)               2.08333325E-02  30.509715       0.63561903           CHD       
     4      (4,1,1)               0.0000000       0.0000000       0.0000000            CHD       
     5      (5,1,1)               0.0000000       0.0000000       0.0000000            CHD       
     6      (6,1,1)               0.0000000       0.0000000       0.0000000            CHD       
     7      (7,1,1)               0.0000000       0.0000000       0.0000000            CHD       
     8      (8,1,1)               0.0000000       0.0000000       0.0000000            CHD       
     9      (9,1,1)               0.0000000       0.0000000       0.0000000            CHD       
     10     (10,1,1)              0.0000000       0.0000000       0.0000000            CHD       
     11     (1,1,25)             -2.08333362E-02  2.93864343E-02 -6.12217466E-04       CHD       
     12     (2,1,25)             -2.08333362E-02  2.93864343E-02 -6.12217466E-04       CHD       
     13     (3,1,25)             -2.08333362E-02  2.93864343E-02 -6.12217466E-04       CHD       
     14     (4,1,25)             -2.08333362E-02  2.93864343E-02 -6.12217466E-04       CHD       
     15     (5,1,25)             -2.08333362E-02  2.93864343E-02 -6.12217467E-04       CHD       
     16     (6,1,25)             -2.08333362E-02  2.93864343E-02 -6.12217467E-04       CHD       
     17     (7,1,25)             -2.08333362E-02  2.93864343E-02 -6.12217467E-04       CHD       
     18     (8,1,25)             -2.08333362E-02  2.93864343E-02 -6.12217467E-04       CHD       
     19     (9,1,25)             -2.08333362E-02  2.93864343E-02 -6.12217467E-04       CHD       
     20     (10,1,25)            -2.08333362E-02  2.93864343E-02 -6.12217467E-04       CHD       
 ------------------------------------------------------------------------------------------------




 CNC PACKAGE (CNC) FLOW RATES   PERIOD      1   STEP        3
 -----------------------------------------------
   NUMBER   CELLID                    RATE      
 -----------------------------------------------
     1      (4,1,1)              -0.44739456    
     2      (5,1,1)               6.11246043E-04
     3      (6,1,1)               1.06444233E-03
     4      (7,1,1)               1.24643000E-03
     5      (8,1,1)               1.32078723E-03
     6      (9,1,1)               1.35081203E-03
     7      (10,1,1)              1.36144135E-03
 -----------------------------------------------



1
  CONCENTRATION IN LAYER   1 AT END OF TIME STEP   3 IN STRESS PERIOD    1
  ---------------------------------------------------------------------------

                1               2               3               4               5               6               7               8               9              10
               11              12              13              14              15              16              17              18              19              20
               21              22              23              24              25
 ................................................................................................................................................................
   1  3.380528613     .6156570194     *************** *************** *************** *************** *************** *************** *************** ***************
      *************** *************** *************** *************** *************** *************** *************** *************** *************** ***************
      *************** *************** *************** *************** ***************
1
  CONCENTRATION IN LAYER   2 AT END OF TIME STEP   3 IN STRESS PERIOD    1
  ---------------------------------------------------------------------------

                1               2               3               4               5               6               7               8               9              10
               11              12              13              14              15              16              17              18              19              20
               21              22              23              24              25
 ................................................................................................................................................................
   1  3.070521555     .5436049971     *************** *************** *************** *************** *************** *************** *************** ***************
      *************** *************** *************** *************** *************** *************** *************** *************** *************** ***************
      *************** *************** *************** *************** ***************
1
  CONCENTRATION IN LAYER   3 AT END OF TIME STEP   3 IN STRESS PERIOD    1
  ---------------------------------------------------------------------------

                1               2               3               4               5               6               7               8               9              10
               11              12              13              14              15              16              17              18              19              20
               21              22              23              24              25
 ................................................................................................................................................................
   1  2.198817190     .3916022867     *************** *************** *************** *************** *************** *************** *************** ***************
      *************** *************** *************** *************** *************** *************** *************** *************** *************** ***************
      *************** *************** *************** *************** ***************
1
  CONCENTRATION IN LAYER   4 AT END OF TIME STEP   3 IN STRESS PERIOD    1
  ---------------------------------------------------------------------------

                1               2               3               4               5               6               7               8               9              10
               11              12              13              14              15              16              17              18              19              20
               21              22              23              24              25
 ................................................................................................................................................................
   1  *************** .1788345555     *************** *************** *************** *************** *************** *************** *************** ***************
      *************** *************** *************** *************** *************** *************** *************** *************** *************** ***************
      *************** *************** *************** *************** ***************
1
  CONCENTRATION IN LAYER   5 AT END OF TIME STEP   3 IN STRESS PERIOD    1
  ---------------------------------------------------------------------------

                1               2               3               4               5               6               7               8               9              10
               11              12              13              14              15              16              17              18              19              20
               21              22              23              24              25
 ................................................................................................................................................................
   1  *************** *************** *************** *************** *************** *************** *************** *************** *************** ***************
      *************** *************** *************** *************** *************** *************** *************** *************** *************** ***************
      *************** *************** *************** *************** ***************
1
  CONCENTRATION IN LAYER   6 AT END OF TIME STEP   3 IN STRESS PERIOD    1
  ---------------------------------------------------------------------------

                1               2               3               4               5               6               7               8               9              10
               11              12              13              14              15              16              17              18              19              20
               21              22              23              24              25
 ................................................................................................................................................................
   1  *************** *************** *************** *************** *************** *************** *************** *************** *************** ***************
      *************** *************** *************** *************** *************** *************** *************** *************** *************** ***************
      *************** *************** *************** *************** ***************
1
  CONCENTRATION IN LAYER   7 AT END OF TIME STEP   3 IN STRESS PERIOD    1
  ---------------------------------------------------------------------------

                1               2               3               4               5               6               7               8               9              10
               11              12              13              14              15              16              17              18              19              20
               21              22              23              24              25
 ................................................................................................................................................................
   1  *************** *************** *************** *************** *************** *************** *************** *************** *************** ***************
      *************** *************** *************** *************** *************** *************** *************** *************** *************** ***************
      *************** *************** *************** *************** ***************
1
  CONCENTRATION IN LAYER   8 AT END OF TIME STEP   3 IN STRESS PERIOD    1
  ---------------------------------------------------------------------------

                1               2               3               4               5               6               7               8               9              10
               11              12              13              14              15              16              17              18              19              20
               21              22              23              24              25
 ................................................................................................................................................................
   1  *************** *************** *************** *************** *************** *************** *************** *************** *************** ***************
      *************** *************** *************** *************** *************** *************** *************** *************** *************** ***************
      *************** *************** *************** *************** ***************
1
  CONCENTRATION IN LAYER   9 AT END OF TIME STEP   3 IN STRESS PERIOD    1
  ---------------------------------------------------------------------------

                1               2               3               4               5               6               7               8               9              10
               11              12              13              14              15              16              17              18              19              20
               21              22              23              24              25
 ................................................................................................................................................................
   1  *************** *************** *************** *************** *************** *************** *************** *************** *************** ***************
      *************** *************** *************** *************** *************** *************** *************** *************** *************** ***************
      *************** *************** *************** *************** ***************
1
  CONCENTRATION IN LAYER  10 AT END OF TIME STEP   3 IN STRESS PERIOD    1
  ---------------------------------------------------------------------------

                1               2               3               4               5               6               7               8               9              10
               11              12              13              14              15              16              17              18              19              20
               21              22              23              24              25
 ................................................................................................................................................................
   1  *************** *************** *************** *************** *************** *************** *************** *************** *************** ***************
      *************** *************** *************** *************** *************** *************** *************** *************** *************** ***************
      *************** *************** *************** *************** ***************

 CONCENTRATION WILL BE SAVED ON UNIT 6641 AT END OF TIME STEP    3, STRESS PERIOD    1


  MASS BUDGET FOR ENTIRE MODEL AT END OF TIME STEP    3, STRESS PERIOD   1
  ---------------------------------------------------------------------------------------------------

     CUMULATIVE MASS      M       RATES FOR THIS TIME STEP      M/T          PACKAGE NAME    
     ------------------                 ------------------------                     ----------------

           IN:                                      IN:
           ---                                      ---
     STORAGE-AQUEOUS =       7.6200E-08       STORAGE-AQUEOUS =       1.5460E-09     MST                              
                 CHD =          57.2057                   CHD =           1.9069     SSM_CHD                          
                 CNC =           0.2093                   CNC =       6.9552E-03     CNC                              

            TOTAL IN =          57.4150              TOTAL IN =           1.9138

          OUT:                                     OUT:
          ----                                     ----
     STORAGE-AQUEOUS =          43.8432       STORAGE-AQUEOUS =           1.4603     MST                              
                 CHD =           0.1837                   CHD =       6.1222E-03     SSM_CHD                          
                 CNC =          13.3882                   CNC =           0.4474     CNC                              

           TOTAL OUT =          57.4150             TOTAL OUT =           1.9138

            IN - OUT =       3.6044E-09              IN - OUT =       1.1864E-10

 PERCENT DISCREPANCY =           0.00     PERCENT DISCREPANCY =           0.00




         TIME SUMMARY AT END OF TIME STEP    3 IN STRESS PERIOD    1
                    SECONDS     MINUTES      HOURS       DAYS        YEARS
                    -----------------------------------------------------------
   TIME STEP LENGTH 8.64000E+05  14400.      240.00      10.000     2.73785E-02
 STRESS PERIOD TIME 2.59200E+06  43200.      720.00      30.000     8.21355E-02
         TOTAL TIME 2.59200E+06  43200.      720.00      30.000     8.21355E-02


end timestep


start timestep kper="1" kstp="4" mode="normal"

 UBDSV06 SAVING  SOURCE-SINK MIX IN MODEL FE               PACKAGE FE              CONNECTED TO MODEL FE               PACKAGE SSM              ON UNIT   6640 AT TIME STEP      4, STRESS PERIOD      1
 UBDSV06 SAVING              CNC IN MODEL FE               PACKAGE FE              CONNECTED TO MODEL FE               PACKAGE CNC              ON UNIT   6640 AT TIME STEP      4, STRESS PERIOD      1

 SSM PACKAGE (SSM) FLOW RATES   PERIOD      1   STEP        4
 ------------------------------------------------------------------------------------------------
   NUMBER   CELLID                   BOUND Q        SSM CONC          RATE         PACKAGE NAME  
 ------------------------------------------------------------------------------------------------
     1      (1,1,1)               2.08333321E-02  30.509715       0.63561902           CHD       
     2      (2,1,1)               2.08333321E-02  30.509715       0.63561902           CHD       
     3      (3,1,1)               2.08333321E-02  30.509715       0.63561902           CHD       
     4      (4,1,1)               0.0000000       0.0000000       0.0000000            CHD       
     5      (5,1,1)               0.0000000       0.0000000       0.0000000            CHD       
     6      (6,1,1)               0.0000000       0.0000000       0.0000000            CHD       
     7      (7,1,1)               0.0000000       0.0000000       0.0000000            CHD       
     8      (8,1,1)               0.0000000       0.0000000       0.0000000            CHD       
     9      (9,1,1)               0.0000000       0.0000000       0.0000000            CHD       
     10     (10,1,1)              0.0000000       0.0000000       0.0000000            CHD       
     11     (1,1,25)             -2.08333356E-02  2.93864343E-02 -6.12217449E-04       CHD       
     12     (2,1,25)             -2.08333356E-02  2.93864343E-02 -6.12217449E-04       CHD       
     13     (3,1,25)             -2.08333356E-02  2.93864343E-02 -6.12217449E-04       CHD       
     14     (4,1,25)             -2.08333356E-02  2.93864343E-02 -6.12217449E-04       CHD       
     15     (5,1,25)             -2.08333356E-02  2.93864343E-02 -6.12217449E-04       CHD       
     16     (6,1,25)             -2.08333356E-02  2.93864343E-02 -6.12217449E-04       CHD       
     17     (7,1,25)             -2.08333356E-02  2.93864343E-02 -6.12217449E-04       CHD       
     18     (8,1,25)             -2.08333356E-02  2.93864343E-02 -6.12217449E-04       CHD       
     19     (9,1,25)             -2.08333356E-02  2.93864343E-02 -6.12217449E-04       CHD       
     20     (10,1,25)            -2.08333356E-02  2.93864343E-02 -6.12217449E-04       CHD       
 ------------------------------------------------------------------------------------------------




 CNC PACKAGE (CNC) FLOW RATES   PERIOD      1   STEP        4
 -----------------------------------------------
   NUMBER   CELLID                    RATE      
 -----------------------------------------------
     1      (4,1,1)              -0.44797560    
     2      (5,1,1)               5.97790349E-04
     3      (6,1,1)               1.05674404E-03
     4      (7,1,1)               1.24215795E-03
     5      (8,1,1)               1.31841214E-03
     6      (9,1,1)               1.34943581E-03
     7      (10,1,1)              1.36048984E-03
 -----------------------------------------------



1
  CONCENTRATION IN LAYER   1 AT END OF TIME STEP   4 IN STRESS PERIOD    1
  ---------------------------------------------------------------------------

                1               2               3               4               5               6               7               8               9              10
               11              12              13              14              15              16              17              18              19              20
               21              22              23              24              25
 ................................................................................................................................................................
   1  3.385203884     .6198949267     *************** *************** *************** *************** *************** *************** *************** ***************
      *************** *************** *************** *************** *************** *************** *************** *************** *************** ***************
      *************** *************** *************** *************** ***************
1
  CONCENTRATION IN LAYER   2 AT END OF TIME STEP   4 IN STRESS PERIOD    1
  ---------------------------------------------------------------------------

                1               2               3               4               5               6               7               8               9              10
               11              12              13              14              15              16              17              18              19              20
               21              22              23              24              25
 ................................................................................................................................................................
   1  3.074987074     .5473503406     *************** *************** *************** *************** *************** *************** *************** ***************
      *************** *************** *************** *************** *************** *************** *************** *************** *************** ***************
      *************** *************** *************** *************** ***************
1
  CONCENTRATION IN LAYER   3 AT END OF TIME STEP   4 IN STRESS PERIOD    1
  ---------------------------------------------------------------------------

                1               2               3               4               5               6               7               8               9              10
               11              12              13              14              15              16              17              18              19              20
               21              22              23              24              25
 ................................................................................................................................................................
   1  2.201497256     .3944179290     *************** *************** *************** *************** *************** *************** *************** ***************
      *************** *************** *************** *************** *************** *************** *************** *************** *************** ***************
      *************** *************** *************** *************** ***************
1
  CONCENTRATION IN LAYER   4 AT END OF TIME STEP   4 IN STRESS PERIOD    1
  ---------------------------------------------------------------------------

                1               2               3               4               5               6               7               8               9              10
               11              12              13              14              15              16              17              18              19              20
               21              22              23              24              25
 ................................................................................................................................................................
   1  *************** .1805777175     *************** *************** *************** *************** *************** *************** *************** ***************
      *************** *************** *************** *************** *************** *************** *************** *************** *************** ***************
      *************** *************** *************** *************** ***************
1
  CONCENTRATION IN LAYER   5 AT END OF TIME STEP   4 IN STRESS PERIOD    1
  ---------------------------------------------------------------------------

                1               2               3               4               5               6               7               8               9              10
               11              12              13              14              15              16              17              18              19              20
               21              22              23              24              25
 ................................................................................................................................................................
   1  *************** *************** *************** *************** *************** *************** *************** *************** *************** ***************
      *************** *************** *************** *************** *************** *************** *************** *************** *************** ***************
      *************** *************** *************** *************** ***************
1
  CONCENTRATION IN LAYER   6 AT END OF TIME STEP   4 IN STRESS PERIOD    1
  ---------------------------------------------------------------------------

                1               2               3               4               5               6               7               8               9              10
               11              12              13              14              15              16              17              18              19              20
               21              22              23              24              25
 ................................................................................................................................................................
   1  *************** *************** *************** *************** *************** *************** *************** *************** *************** ***************
      *************** *************** *************** *************** *************** *************** *************** *************** *************** ***************
      *************** *************** *************** *************** ***************
1
  CONCENTRATION IN LAYER   7 AT END OF TIME STEP   4 IN STRESS PERIOD    1
  ---------------------------------------------------------------------------

                1               2               3               4               5               6               7               8               9              10
               11              12              13              14              15              16              17              18              19              20
               21              22              23              24              25
 ................................................................................................................................................................
   1  *************** *************** *************** *************** *************** *************** *************** *************** *************** ***************
      *************** *************** *************** *************** *************** *************** *************** *************** *************** ***************
      *************** *************** *************** *************** ***************
1
  CONCENTRATION IN LAYER   8 AT END OF TIME STEP   4 IN STRESS PERIOD    1
  ---------------------------------------------------------------------------

                1               2               3               4               5               6               7               8               9              10
               11              12              13              14              15              16              17              18              19              20
               21              22              23              24              25
 ................................................................................................................................................................
   1  *************** *************** *************** *************** *************** *************** *************** *************** *************** ***************
      *************** *************** *************** *************** *************** *************** *************** *************** *************** ***************
      *************** *************** *************** *************** ***************
1
  CONCENTRATION IN LAYER   9 AT END OF TIME STEP   4 IN STRESS PERIOD    1
  ---------------------------------------------------------------------------

                1               2               3               4               5               6               7               8               9              10
               11              12              13              14              15              16              17              18              19              20
               21              22              23              24              25
 ................................................................................................................................................................
   1  *************** *************** *************** *************** *************** *************** *************** *************** *************** ***************
      *************** *************** *************** *************** *************** *************** *************** *************** *************** ***************
      *************** *************** *************** *************** ***************
1
  CONCENTRATION IN LAYER  10 AT END OF TIME STEP   4 IN STRESS PERIOD    1
  ---------------------------------------------------------------------------

                1               2               3               4               5               6               7               8               9              10
               11              12              13              14              15              16              17              18              19              20
               21              22              23              24              25
 ................................................................................................................................................................
   1  *************** *************** *************** *************** *************** *************** *************** *************** *************** ***************
      *************** *************** *************** *************** *************** *************** *************** *************** *************** ***************
      *************** *************** *************** *************** ***************

 CONCENTRATION WILL BE SAVED ON UNIT 6641 AT END OF TIME STEP    4, STRESS PERIOD    1


  MASS BUDGET FOR ENTIRE MODEL AT END OF TIME STEP    4, STRESS PERIOD   1
  ---------------------------------------------------------------------------------------------------

     CUMULATIVE MASS      M       RATES FOR THIS TIME STEP      M/T          PACKAGE NAME    
     ------------------                 ------------------------                     ----------------

           IN:                                      IN:
           ---                                      ---
     STORAGE-AQUEOUS =       1.1389E-07       STORAGE-AQUEOUS =       3.7689E-09     MST                              
                 CHD =          76.2743                   CHD =           1.9069     SSM_CHD                          
                 CNC =           0.2786                   CNC =       6.9250E-03     CNC                              

            TOTAL IN =          76.5528              TOTAL IN =           1.9138

          OUT:                                     OUT:
          ----                                     ----
     STORAGE-AQUEOUS =          58.4400       STORAGE-AQUEOUS =           1.4597     MST                              
                 CHD =           0.2449                   CHD =       6.1222E-03     SSM_CHD                          
                 CNC =          17.8679                   CNC =           0.4480     CNC                              

           TOTAL OUT =          76.5528             TOTAL OUT =           1.9138

            IN - OUT =       4.7752E-09              IN - OUT =       1.1707E-10

 PERCENT DISCREPANCY =           0.00     PERCENT DISCREPANCY =           0.00




         TIME SUMMARY AT END OF TIME STEP    4 IN STRESS PERIOD    1
                    SECONDS     MINUTES      HOURS       DAYS        YEARS
                    -----------------------------------------------------------
   TIME STEP LENGTH 8.64000E+05  14400.      240.00      10.000     2.73785E-02
 STRESS PERIOD TIME 3.45600E+06  57600.      960.00      40.000     0.10951    
         TOTAL TIME 3.45600E+06  57600.      960.00      40.000     0.10951    


end timestep


start timestep kper="1" kstp="5" mode="normal"

 UBDSV06 SAVING  SOURCE-SINK MIX IN MODEL FE               PACKAGE FE              CONNECTED TO MODEL FE               PACKAGE SSM              ON UNIT   6640 AT TIME STEP      5, STRESS PERIOD      1
 UBDSV06 SAVING              CNC IN MODEL FE               PACKAGE FE              CONNECTED TO MODEL FE               PACKAGE CNC              ON UNIT   6640 AT TIME STEP      5, STRESS PERIOD      1

 SSM PACKAGE (SSM) FLOW RATES   PERIOD      1   STEP        5
 ------------------------------------------------------------------------------------------------
   NUMBER   CELLID                   BOUND Q        SSM CONC          RATE         PACKAGE NAME  
 ------------------------------------------------------------------------------------------------
     1      (1,1,1)               2.08333321E-02  30.509715       0.63561902           CHD       
     2      (2,1,1)               2.08333321E-02  30.509715       0.63561902           CHD       
     3      (3,1,1)               2.08333321E-02  30.509715       0.63561902           CHD       
     4      (4,1,1)               0.0000000       0.0000000       0.0000000            CHD       
     5      (5,1,1)               0.0000000       0.0000000       0.0000000            CHD       
     6      (6,1,1)               0.0000000       0.0000000       0.0000000            CHD       
     7      (7,1,1)               0.0000000       0.0000000       0.0000000            CHD       
     8      (8,1,1)               0.0000000       0.0000000       0.0000000            CHD       
     9      (9,1,1)               0.0000000       0.0000000       0.0000000            CHD       
     10     (10,1,1)              0.0000000       0.0000000       0.0000000            CHD       
     11     (1,1,25)             -2.08333353E-02  2.93864343E-02 -6.12217440E-04       CHD       
[...]
               21              22              23              24              25
 ................................................................................................................................................................
   1  *************** *************** *************** *************** *************** *************** *************** *************** *************** ***************
      *************** *************** *************** *************** *************** *************** *************** *************** *************** ***************
      *************** *************** *************** *************** ***************

 CONCENTRATION WILL BE SAVED ON UNIT 6641 AT END OF TIME STEP  199, STRESS PERIOD    1


  MASS BUDGET FOR ENTIRE MODEL AT END OF TIME STEP  199, STRESS PERIOD   1
  ---------------------------------------------------------------------------------------------------

     CUMULATIVE MASS      M       RATES FOR THIS TIME STEP      M/T          PACKAGE NAME    
     ------------------                 ------------------------                     ----------------

           IN:                                      IN:
           ---                                      ---
     STORAGE-AQUEOUS =         194.3547       STORAGE-AQUEOUS =       6.4197E-02     MST                              
                 CHD =        3794.6457                   CHD =           1.9069     SSM_CHD                          
                 CNC =           6.3428                   CNC =       1.6867E-03     CNC                              

            TOTAL IN =        3995.3432              TOTAL IN =           1.9727

          OUT:                                     OUT:
          ----                                     ----
     STORAGE-AQUEOUS =        1573.6886       STORAGE-AQUEOUS =           0.6642     MST                              
                 CHD =          13.5342                   CHD =       8.9731E-03     SSM_CHD                          
                 CNC =        2408.1204                   CNC =           1.2996     CNC                              

           TOTAL OUT =        3995.3432             TOTAL OUT =           1.9727

            IN - OUT =       1.1616E-07              IN - OUT =      -3.2395E-11

 PERCENT DISCREPANCY =           0.00     PERCENT DISCREPANCY =          -0.00




         TIME SUMMARY AT END OF TIME STEP  199 IN STRESS PERIOD    1
                    SECONDS     MINUTES      HOURS       DAYS        YEARS
                    -----------------------------------------------------------
   TIME STEP LENGTH 8.64000E+05  14400.      240.00      10.000     2.73785E-02
 STRESS PERIOD TIME 1.71936E+08 2.86560E+06  47760.      1990.0      5.4483    
         TOTAL TIME 1.71936E+08 2.86560E+06  47760.      1990.0      5.4483    


end timestep


start timestep kper="1" kstp="200" mode="normal"

 UBDSV06 SAVING  SOURCE-SINK MIX IN MODEL FE               PACKAGE FE              CONNECTED TO MODEL FE               PACKAGE SSM              ON UNIT   6640 AT TIME STEP    200, STRESS PERIOD      1
 UBDSV06 SAVING              CNC IN MODEL FE               PACKAGE FE              CONNECTED TO MODEL FE               PACKAGE CNC              ON UNIT   6640 AT TIME STEP    200, STRESS PERIOD      1

 SSM PACKAGE (SSM) FLOW RATES   PERIOD      1   STEP      200
 ------------------------------------------------------------------------------------------------
   NUMBER   CELLID                   BOUND Q        SSM CONC          RATE         PACKAGE NAME  
 ------------------------------------------------------------------------------------------------
     1      (1,1,1)               2.08333330E-02  30.509715       0.63561905           CHD       
     2      (2,1,1)               2.08333330E-02  30.509715       0.63561905           CHD       
     3      (3,1,1)               2.08333330E-02  30.509715       0.63561905           CHD       
     4      (4,1,1)               0.0000000       0.0000000       0.0000000            CHD       
     5      (5,1,1)               0.0000000       0.0000000       0.0000000            CHD       
     6      (6,1,1)               0.0000000       0.0000000       0.0000000            CHD       
     7      (7,1,1)               0.0000000       0.0000000       0.0000000            CHD       
     8      (8,1,1)               0.0000000       0.0000000       0.0000000            CHD       
     9      (9,1,1)               0.0000000       0.0000000       0.0000000            CHD       
     10     (10,1,1)              0.0000000       0.0000000       0.0000000            CHD       
     11     (1,1,25)             -2.08333337E-02  4.31662608E-02 -8.99297115E-04       CHD       
     12     (2,1,25)             -2.08333337E-02  4.31662610E-02 -8.99297117E-04       CHD       
     13     (3,1,25)             -2.08333337E-02  4.31662611E-02 -8.99297121E-04       CHD       
     14     (4,1,25)             -2.08333337E-02  4.31662614E-02 -8.99297126E-04       CHD       
     15     (5,1,25)             -2.08333337E-02  4.31662616E-02 -8.99297132E-04       CHD       
     16     (6,1,25)             -2.08333337E-02  4.31662619E-02 -8.99297137E-04       CHD       
     17     (7,1,25)             -2.08333337E-02  4.31662622E-02 -8.99297143E-04       CHD       
     18     (8,1,25)             -2.08333337E-02  4.31662624E-02 -8.99297148E-04       CHD       
     19     (9,1,25)             -2.08333337E-02  4.31662626E-02 -8.99297153E-04       CHD       
     20     (10,1,25)            -2.08333337E-02  4.31662628E-02 -8.99297155E-04       CHD       
 ------------------------------------------------------------------------------------------------




 CNC PACKAGE (CNC) FLOW RATES   PERIOD      1   STEP      200
 -----------------------------------------------
   NUMBER   CELLID                    RATE      
 -----------------------------------------------
     1      (4,1,1)              -1.2737582     
     2      (5,1,1)              -1.64502864E-02
     3      (6,1,1)              -7.25744326E-03
     4      (7,1,1)              -2.22245920E-03
     5      (8,1,1)              -1.46694288E-04
     6      (9,1,1)               6.93129061E-04
     7      (10,1,1)              9.90088916E-04
 -----------------------------------------------



1
  CONCENTRATION IN LAYER   1 AT END OF TIME STEP 200 IN STRESS PERIOD    1
  ---------------------------------------------------------------------------

                1               2               3               4               5               6               7               8               9              10
               11              12              13              14              15              16              17              18              19              20
               21              22              23              24              25
 ................................................................................................................................................................
   1  11.17836494     6.635795958     3.208135830     .9442423094     .1386143984     *************** *************** *************** *************** ***************
      *************** *************** *************** *************** *************** *************** *************** *************** *************** ***************
      *************** *************** *************** *************** ***************
1
  CONCENTRATION IN LAYER   2 AT END OF TIME STEP 200 IN STRESS PERIOD    1
  ---------------------------------------------------------------------------

                1               2               3               4               5               6               7               8               9              10
               11              12              13              14              15              16              17              18              19              20
               21              22              23              24              25
 ................................................................................................................................................................
   1  9.529711238     5.789692528     2.906988526     .8012531954     .1263700329     *************** *************** *************** *************** ***************
      *************** *************** *************** *************** *************** *************** *************** *************** *************** ***************
      *************** *************** *************** *************** ***************
1
  CONCENTRATION IN LAYER   3 AT END OF TIME STEP 200 IN STRESS PERIOD    1
  ---------------------------------------------------------------------------

                1               2               3               4               5               6               7               8               9              10
               11              12              13              14              15              16              17              18              19              20
               21              22              23              24              25
 ................................................................................................................................................................
   1  6.017298204     4.282000575     2.377066853     .5718998804     .1071577991     *************** *************** *************** *************** ***************
      *************** *************** *************** *************** *************** *************** *************** *************** *************** ***************
      *************** *************** *************** *************** ***************
1
  CONCENTRATION IN LAYER   4 AT END OF TIME STEP 200 IN STRESS PERIOD    1
  ---------------------------------------------------------------------------

                1               2               3               4               5               6               7               8               9              10
               11              12              13              14              15              16              17              18              19              20
               21              22              23              24              25
 ................................................................................................................................................................
   1  *************** 2.547865720     1.740474609     .3928801022     *************** *************** *************** *************** *************** ***************
      *************** *************** *************** *************** *************** *************** *************** *************** *************** ***************
      *************** *************** *************** *************** ***************
1
  CONCENTRATION IN LAYER   5 AT END OF TIME STEP 200 IN STRESS PERIOD    1
  ---------------------------------------------------------------------------

                1               2               3               4               5               6               7               8               9              10
               11              12              13              14              15              16              17              18              19              20
               21              22              23              24              25
 ................................................................................................................................................................
   1  *************** 1.403167765     1.126004867     .2727343899     *************** *************** *************** *************** *************** ***************
      *************** *************** *************** *************** *************** *************** *************** *************** *************** ***************
      *************** *************** *************** *************** ***************
1
  CONCENTRATION IN LAYER   6 AT END OF TIME STEP 200 IN STRESS PERIOD    1
  ---------------------------------------------------------------------------

                1               2               3               4               5               6               7               8               9              10
               11              12              13              14              15              16              17              18              19              20
               21              22              23              24              25
 ................................................................................................................................................................
   1  *************** .6971574018     .6336818302     .1845159222     *************** *************** *************** *************** *************** ***************
      *************** *************** *************** *************** *************** *************** *************** *************** *************** ***************
      *************** *************** *************** *************** ***************
1
  CONCENTRATION IN LAYER   7 AT END OF TIME STEP 200 IN STRESS PERIOD    1
  ---------------------------------------------------------------------------

                1               2               3               4               5               6               7               8               9              10
               11              12              13              14              15              16              17              18              19              20
               21              22              23              24              25
 ................................................................................................................................................................
   1  *************** .3104706190     .3023291105     .1219790577     *************** *************** *************** *************** *************** ***************
      *************** *************** *************** *************** *************** *************** *************** *************** *************** ***************
      *************** *************** *************** *************** ***************
1
  CONCENTRATION IN LAYER   8 AT END OF TIME STEP 200 IN STRESS PERIOD    1
  ---------------------------------------------------------------------------

                1               2               3               4               5               6               7               8               9              10
               11              12              13              14              15              16              17              18              19              20
               21              22              23              24              25
 ................................................................................................................................................................
   1  *************** .1510518715     .1553639592     *************** *************** *************** *************** *************** *************** ***************
      *************** *************** *************** *************** *************** *************** *************** *************** *************** ***************
      *************** *************** *************** *************** ***************
1
  CONCENTRATION IN LAYER   9 AT END OF TIME STEP 200 IN STRESS PERIOD    1
  ---------------------------------------------------------------------------

                1               2               3               4               5               6               7               8               9              10
               11              12              13              14              15              16              17              18              19              20
               21              22              23              24              25
 ................................................................................................................................................................
   1  *************** *************** *************** *************** *************** *************** *************** *************** *************** ***************
      *************** *************** *************** *************** *************** *************** *************** *************** *************** ***************
      *************** *************** *************** *************** ***************
1
  CONCENTRATION IN LAYER  10 AT END OF TIME STEP 200 IN STRESS PERIOD    1
  ---------------------------------------------------------------------------

                1               2               3               4               5               6               7               8               9              10
               11              12              13              14              15              16              17              18              19              20
               21              22              23              24              25
 ................................................................................................................................................................
   1  *************** *************** *************** *************** *************** *************** *************** *************** *************** ***************
      *************** *************** *************** *************** *************** *************** *************** *************** *************** ***************
      *************** *************** *************** *************** ***************

 CONCENTRATION WILL BE SAVED ON UNIT 6641 AT END OF TIME STEP  200, STRESS PERIOD    1


  MASS BUDGET FOR ENTIRE MODEL AT END OF TIME STEP  200, STRESS PERIOD   1
  ---------------------------------------------------------------------------------------------------

     CUMULATIVE MASS      M       RATES FOR THIS TIME STEP      M/T          PACKAGE NAME    
     ------------------                 ------------------------                     ----------------

           IN:                                      IN:
           ---                                      ---
     STORAGE-AQUEOUS =         194.9985       STORAGE-AQUEOUS =       6.4383E-02     MST                              
                 CHD =        3813.7143                   CHD =           1.9069     SSM_CHD                          
                 CNC =           6.3596                   CNC =       1.6832E-03     CNC                              

            TOTAL IN =        4015.0724              TOTAL IN =           1.9729

          OUT:                                     OUT:
          ----                                     ----
     STORAGE-AQUEOUS =        1580.3296       STORAGE-AQUEOUS =           0.6641     MST                              
                 CHD =          13.6241                   CHD =       8.9930E-03     SSM_CHD                          
                 CNC =        2421.1187                   CNC =           1.2998     CNC                              

           TOTAL OUT =        4015.0724             TOTAL OUT =           1.9729

            IN - OUT =       1.1584E-07              IN - OUT =      -3.1978E-11

 PERCENT DISCREPANCY =           0.00     PERCENT DISCREPANCY =          -0.00




         TIME SUMMARY AT END OF TIME STEP  200 IN STRESS PERIOD    1
                    SECONDS     MINUTES      HOURS       DAYS        YEARS
                    -----------------------------------------------------------
   TIME STEP LENGTH 8.64000E+05  14400.      240.00      10.000     2.73785E-02
 STRESS PERIOD TIME 1.72800E+08 2.88000E+06  48000.      2000.0      5.4757    
         TOTAL TIME 1.72800E+08 2.88000E+06  48000.      2000.0      5.4757    


end timestep

