                                   MODFLOW 6
                U.S. GEOLOGICAL SURVEY MODULAR HYDROLOGIC MODEL
                       GROUNDWATER TRANSPORT MODEL (GWT)
                VERSION 6.5.0.dev0+prt (preliminary) 10/07/2023
                               ***DEVELOP MODE***

   MODFLOW 6 compiled Oct 07 2023 02:19:02 with Intel(R) Fortran Intel(R) 64
   Compiler Classic for applications running on Intel(R) 64, Version 2021.7.0
                             Build 20220726_000000

This software is preliminary or provisional and is subject to 
revision. It is being provided to meet the need for timely best 
science. The software has not received final approval by the U.S. 
Geological Survey (USGS). No warranty, expressed or implied, is made 
by the USGS or the U.S. Government as to the functionality of the 
software and related material nor shall the fact of release 
constitute any such warranty. The software is provided on the 
condition that neither the USGS nor the U.S. Government shall be held 
liable for any damages resulting from the authorized or unauthorized 
use of the software.


As a work of the United States Government, this USGS product is 
in the public domain within the United States. You can copy, 
modify, distribute, and perform the work, even for commercial 
purposes, all without asking permission. Additionally, USGS 
waives copyright and related rights in the work worldwide 
through CC0 1.0 Universal Public Domain Dedication 
(https://creativecommons.org/publicdomain/zero/1.0/).

The following GNU Lesser General Public License (LGPL) libraries
are used in this USGS product:

    SPARSKIT version 2.0
      ilut, luson, and qsplit 
      (https://www-users.cse.umn.edu/~saad/software/SPARSKIT/)

    RCM - Reverse Cuthill McKee Ordering
      (https://people.math.sc.edu/Burkardt/f_src/rcm/rcm.html)

    BLAS - Basic Linear Algebra Subprograms Level 1
      (https://people.math.sc.edu/Burkardt/f_src/blas1_d/blas1_d.html)

    SPARSEKIT - Sparse Matrix Utility Package
      amux, dperm, dvperm, rperm, and cperm
      (https://people.sc.fsu.edu/~jburkardt/f77_src/sparsekit/sparsekit.html)

The following BSD-3 License libraries are used in this USGS product:

    Modern Fortran DAG Library
      Copyright (c) 2018, Jacob Williams
      All rights reserved.
      (https://github.com/jacobwilliams/daglib)

MODFLOW 6 compiler options: /Isrc\libmf6core.a.p /Isrc /I..\src
/Isrc\libmf6_external.a.p /MTd /nologo /warn:general /warn:truncated_source
/stand:f08 /Zi /traceback /O2 /fpe:0 /heap-arrays:0 /traceback /fpp
/Qdiag-disable:7416 /Qdiag-disable:7025 /Qdiag-disable:5268
/Fdsrc\libmf6core.a.p\Utilities_compilerversion.F90.pdb
/module:src\libmf6core.a.p
/Fosrc/libmf6core.a.p/Utilities_compilerversion.F90.obj /c

System command used to initiate simulation:
c:\Users\portega\anaconda3\envs\mf6rtm\python.exe -m ipykernel_launcher --f=c:\Users\portega\AppData\Roaming\jupyter\runtime\kernel-v2-11124KPW9D2dGCFX9.json

MODFLOW was compiled using uniform precision.

Real Variables
  KIND: 8
  TINY (smallest non-zero value):    2.225074-308
  HUGE (largest value):    1.797693+308
  PRECISION: 15
  SIZE IN BITS: 64

Integer Variables
  KIND: 4
  HUGE (largest value): 2147483647
  SIZE IN BITS: 32

Long Integer Variables
  KIND: 8
  HUGE (largest value): 9223372036854775807
  SIZE IN BITS: 64

Logical Variables
  KIND: 4
  SIZE IN BITS: 32
 
 NAMEFILE OPTIONS:
 END NAMEFILE OPTIONS:

 DIS -- STRUCTURED GRID DISCRETIZATION PACKAGE, VERSION 2 : 3/27/2014 - INPUT READ FROM MEMPATH: __INPUT__/H/DIS                                   


 DSP-- DISPERSION PACKAGE, VERSION 1, 1/24/2018 INPUT READ FROM MEMPATH: __INPUT__/H/DSP                                   


 Setting Discretization Options
    Model length unit [0=UND, 1=FEET, 2=METERS, 3=CENTIMETERS] set as 2
 End Setting Discretization Options

 Setting Discretization Dimensions
    NLAY = 10
    NROW = 1
    NCOL = 25
 End Setting Discretization Dimensions

 Setting Discretization Griddata
    DELR set from input file
    DELC set from input file
    TOP set from input file
    BOTM set from input file
    IDOMAIN set from input file
 End Setting Discretization Griddata


 FMI -- FLOW MODEL INTERFACE,' VERSION 2, 8/17/2023
  FLOWS PROVIDED BY A GWF MODEL IN THIS SIMULATION

 ADV-- ADVECTION PACKAGE, VERSION 1, 8/25/2017 INPUT READ FROM UNIT 1063


 # File generated by Flopy version 3.5.0.dev0 on 05/31/2024 at 14:35:03.
 PROCESSING ADVECTION OPTIONS
    ADVECTION WEIGHTING SCHEME HAS BEEN SET TO: TVD
 END OF ADVECTION OPTIONS
 Setting DSP Options
    XT3D formulation [0=INACTIVE, 1=ACTIVE, 3=ACTIVE RHS] set to: 0
 End Setting DSP Options

 Setting DSP Griddata
    ALH set from input file
    ATH1 set from input file
    ATV set from input file
 End Setting DSP Griddata


 CNC   -- CNC PACKAGE, VERSION 8, 2/22/2014 INPUT READ FROM UNIT 1097
 # File generated by Flopy version 3.5.0.dev0 on 05/31/2024 at 14:35:03.

 PROCESSING CNC OPTIONS
 END OF CNC OPTIONS

 PROCESSING CNC DIMENSIONS
    MAXBOUND =       7
 END OF CNC DIMENSIONS

 IC -- INITIAL CONDITIONS PACKAGE, VERSION 8, 3/28/2015 INPUT READ FROM UNIT 1061
 # File generated by Flopy version 3.5.0.dev0 on 05/31/2024 at 14:35:03.
 PROCESSING GRIDDATA

 OPENED H.ic_strt_layer1.txt
 FILE TYPE:OPEN/CLOSE   UNIT 1940   STATUS:OLD                 
 FORMAT:FORMATTED              ACCESS:SEQUENTIAL          
 ACTION:READ                


 OPENED H.ic_strt_layer2.txt
 FILE TYPE:OPEN/CLOSE   UNIT 1941   STATUS:OLD                 
 FORMAT:FORMATTED              ACCESS:SEQUENTIAL          
 ACTION:READ                


 OPENED H.ic_strt_layer3.txt
 FILE TYPE:OPEN/CLOSE   UNIT 1942   STATUS:OLD                 
 FORMAT:FORMATTED              ACCESS:SEQUENTIAL          
 ACTION:READ                


 OPENED H.ic_strt_layer4.txt
 FILE TYPE:OPEN/CLOSE   UNIT 1943   STATUS:OLD                 
 FORMAT:FORMATTED              ACCESS:SEQUENTIAL          
 ACTION:READ                


 OPENED H.ic_strt_layer5.txt
 FILE TYPE:OPEN/CLOSE   UNIT 1944   STATUS:OLD                 
 FORMAT:FORMATTED              ACCESS:SEQUENTIAL          
 ACTION:READ                


 OPENED H.ic_strt_layer6.txt
 FILE TYPE:OPEN/CLOSE   UNIT 1945   STATUS:OLD                 
 FORMAT:FORMATTED              ACCESS:SEQUENTIAL          
 ACTION:READ                


 OPENED H.ic_strt_layer7.txt
 FILE TYPE:OPEN/CLOSE   UNIT 1946   STATUS:OLD                 
 FORMAT:FORMATTED              ACCESS:SEQUENTIAL          
 ACTION:READ                


 OPENED H.ic_strt_layer8.txt
 FILE TYPE:OPEN/CLOSE   UNIT 1947   STATUS:OLD                 
 FORMAT:FORMATTED              ACCESS:SEQUENTIAL          
 ACTION:READ                


 OPENED H.ic_strt_layer9.txt
 FILE TYPE:OPEN/CLOSE   UNIT 1948   STATUS:OLD                 
 FORMAT:FORMATTED              ACCESS:SEQUENTIAL          
 ACTION:READ                


 OPENED H.ic_strt_layer10.txt
 FILE TYPE:OPEN/CLOSE   UNIT 1949   STATUS:OLD                 
 FORMAT:FORMATTED              ACCESS:SEQUENTIAL          
 ACTION:READ                

 END PROCESSING GRIDDATA

 MST -- MOBILE STORAGE AND TRANSFER PACKAGE, VERSION 1, 7/29/2020 INPUT READ FROM UNIT 1062


 # File generated by Flopy version 3.5.0.dev0 on 05/31/2024 at 14:35:03.
 PROCESSING MOBILE STORAGE AND TRANSFER OPTIONS
 END OF MOBILE STORAGE AND TRANSFER OPTIONS
 PROCESSING GRIDDATA

 OPENED H.mst_porosity.txt
 FILE TYPE:OPEN/CLOSE   UNIT 1950   STATUS:OLD                 
 FORMAT:FORMATTED              ACCESS:SEQUENTIAL          
 ACTION:READ                

 END PROCESSING GRIDDATA

 SSM -- SOURCE-SINK MIXING PACKAGE, VERSION 1, 8/25/2017 INPUT READ FROM UNIT 1095


 # File generated by Flopy version 3.5.0.dev0 on 05/31/2024 at 14:35:03.
 PROCESSING SSM OPTIONS
 END OF SSM OPTIONS

 OPENED H.ssm_sources.txt
 FILE TYPE:OPEN/CLOSE   UNIT 1951   STATUS:OLD                 
 FORMAT:FORMATTED              ACCESS:SEQUENTIAL          
 ACTION:READ                

 PROCESSING SOURCES
 AUX SOURCE DETECTED.
    USING AUX COLUMN 1 IN PACKAGE CHDTAIL
 END PROCESSING SOURCES
 OPTIONAL FILEINPUT BLOCK NOT FOUND.  CONTINUING.
      THE LAST TIME STEP WILL BE PRINTED
      THE LAST TIME STEP WILL BE PRINTED
 # File generated by Flopy version 3.5.0.dev0 on 05/31/2024 at 14:35:03.

 PROCESSING OC OPTIONS

    BUDGET INFORMATION WILL BE WRITTEN TO:
      UNIT NUMBER: 1952
      FILE NAME: H.cbb

 OPENED H.cbb
 FILE TYPE:DATA(BINARY)   UNIT 1952   STATUS:REPLACE             
 FORMAT:UNFORMATTED            ACCESS:STREAM              
 ACTION:READWRITE           

    CONCENTRATION INFORMATION WILL BE WRITTEN TO:
      UNIT NUMBER: 1953
      FILE NAME: H.ucn

 OPENED H.ucn
 FILE TYPE:DATA(BINARY)   UNIT 1953   STATUS:REPLACE             
 FORMAT:UNFORMATTED            ACCESS:STREAM              
 ACTION:READWRITE           

 END OF OC OPTIONS

start timestep kper="1" kstp="1" mode="normal"


 BEGIN READING OUTPUT CONTROL FOR STRESS PERIOD 1
      ALL TIME STEPS WILL BE SAVED
      THE LAST TIME STEP WILL BE PRINTED

 END READING OUTPUT CONTROL FOR STRESS PERIOD 1

 OPENED H.cnc_stress_period_data_1.txt
 FILE TYPE:OPEN/CLOSE   UNIT 2136   STATUS:OLD                 
 FORMAT:FORMATTED              ACCESS:SEQUENTIAL          
 ACTION:READ                


 CONCENTRATION WILL BE SAVED ON UNIT 1953 AT END OF TIME STEP    1, STRESS PERIOD    1

end timestep


start timestep kper="1" kstp="2" mode="normal"


 CONCENTRATION WILL BE SAVED ON UNIT 1953 AT END OF TIME STEP    2, STRESS PERIOD    1

end timestep


start timestep kper="1" kstp="3" mode="normal"


 CONCENTRATION WILL BE SAVED ON UNIT 1953 AT END OF TIME STEP    3, STRESS PERIOD    1

end timestep


start timestep kper="1" kstp="4" mode="normal"


 CONCENTRATION WILL BE SAVED ON UNIT 1953 AT END OF TIME STEP    4, STRESS PERIOD    1

end timestep


start timestep kper="1" kstp="5" mode="normal"


 CONCENTRATION WILL BE SAVED ON UNIT 1953 AT END OF TIME STEP    5, STRESS PERIOD    1

end timestep


start timestep kper="1" kstp="6" mode="normal"


 CONCENTRATION WILL BE SAVED ON UNIT 1953 AT END OF TIME STEP    6, STRESS PERIOD    1

end timestep


start timestep kper="1" kstp="7" mode="normal"


 CONCENTRATION WILL BE SAVED ON UNIT 1953 AT END OF TIME STEP    7, STRESS PERIOD    1

end timestep


start timestep kper="1" kstp="8" mode="normal"


 CONCENTRATION WILL BE SAVED ON UNIT 1953 AT END OF TIME STEP    8, STRESS PERIOD    1

end timestep


start timestep kper="1" kstp="9" mode="normal"


 CONCENTRATION WILL BE SAVED ON UNIT 1953 AT END OF TIME STEP    9, STRESS PERIOD    1

end timestep


start timestep kper="1" kstp="10" mode="normal"


 CONCENTRATION WILL BE SAVED ON UNIT 1953 AT END OF TIME STEP   10, STRESS PERIOD    1

end timestep


start timestep kper="1" kstp="11" mode="normal"


 CONCENTRATION WILL BE SAVED ON UNIT 1953 AT END OF TIME STEP   11, STRESS PERIOD    1

end timestep


start timestep kper="1" kstp="12" mode="normal"


 CONCENTRATION WILL BE SAVED ON UNIT 1953 AT END OF TIME STEP   12, STRESS PERIOD    1

end timestep


start timestep kper="1" kstp="13" mode="normal"


 CONCENTRATION WILL BE SAVED ON UNIT 1953 AT END OF TIME STEP   13, STRESS PERIOD    1

end timestep


start timestep kper="1" kstp="14" mode="normal"


 CONCENTRATION WILL BE SAVED ON UNIT 1953 AT END OF TIME STEP   14, STRESS PERIOD    1

end timestep


start timestep kper="1" kstp="15" mode="normal"


 CONCENTRATION WILL BE SAVED ON UNIT 1953 AT END OF TIME STEP   15, STRESS PERIOD    1

end timestep


start timestep kper="1" kstp="16" mode="normal"


 CONCENTRATION WILL BE SAVED ON UNIT 1953 AT END OF TIME STEP   16, STRESS PERIOD    1

end timestep


start timestep kper="1" kstp="17" mode="normal"


 CONCENTRATION WILL BE SAVED ON UNIT 1953 AT END OF TIME STEP   17, STRESS PERIOD    1

end timestep


start timestep kper="1" kstp="18" mode="normal"


 CONCENTRATION WILL BE SAVED ON UNIT 1953 AT END OF TIME STEP   18, STRESS PERIOD    1

end timestep


start timestep kper="1" kstp="19" mode="normal"


 CONCENTRATION WILL BE SAVED ON UNIT 1953 AT END OF TIME STEP   19, STRESS PERIOD    1

end timestep


start timestep kper="1" kstp="20" mode="normal"


 CONCENTRATION WILL BE SAVED ON UNIT 1953 AT END OF TIME STEP   20, STRESS PERIOD    1

end timestep


start timestep kper="1" kstp="21" mode="normal"


 CONCENTRATION WILL BE SAVED ON UNIT 1953 AT END OF TIME STEP   21, STRESS PERIOD    1

end timestep


start timestep kper="1" kstp="22" mode="normal"


 CONCENTRATION WILL BE SAVED ON UNIT 1953 AT END OF TIME STEP   22, STRESS PERIOD    1

end timestep


start timestep kper="1" kstp="23" mode="normal"


 CONCENTRATION WILL BE SAVED ON UNIT 1953 AT END OF TIME STEP   23, STRESS PERIOD    1

end timestep


start timestep kper="1" kstp="24" mode="normal"


 CONCENTRATION WILL BE SAVED ON UNIT 1953 AT END OF TIME STEP   24, STRESS PERIOD    1

end timestep


start timestep kper="1" kstp="25" mode="normal"


 CONCENTRATION WILL BE SAVED ON UNIT 1953 AT END OF TIME STEP   25, STRESS PERIOD    1

end timestep


start timestep kper="1" kstp="26" mode="normal"


 CONCENTRATION WILL BE SAVED ON UNIT 1953 AT END OF TIME STEP   26, STRESS PERIOD    1

end timestep


start timestep kper="1" kstp="27" mode="normal"


 CONCENTRATION WILL BE SAVED ON UNIT 1953 AT END OF TIME STEP   27, STRESS PERIOD    1

end timestep


start timestep kper="1" kstp="28" mode="normal"


 CONCENTRATION WILL BE SAVED ON UNIT 1953 AT END OF TIME STEP   28, STRESS PERIOD    1

end timestep


start timestep kper="1" kstp="29" mode="normal"


 CONCENTRATION WILL BE SAVED ON UNIT 1953 AT END OF TIME STEP   29, STRESS PERIOD    1

end timestep


start timestep kper="1" kstp="30" mode="normal"


 CONCENTRATION WILL BE SAVED ON UNIT 1953 AT END OF TIME STEP   30, STRESS PERIOD    1

end timestep


start timestep kper="1" kstp="31" mode="normal"


 CONCENTRATION WILL BE SAVED ON UNIT 1953 AT END OF TIME STEP   31, STRESS PERIOD    1

end timestep


start timestep kper="1" kstp="32" mode="normal"


 CONCENTRATION WILL BE SAVED ON UNIT 1953 AT END OF TIME STEP   32, STRESS PERIOD    1

end timestep


start timestep kper="1" kstp="33" mode="normal"


 CONCENTRATION WILL BE SAVED ON UNIT 1953 AT END OF TIME STEP   33, STRESS PERIOD    1

end timestep


start timestep kper="1" kstp="34" mode="normal"


 CONCENTRATION WILL BE SAVED ON UNIT 1953 AT END OF TIME STEP   34, STRESS PERIOD    1

end timestep


start timestep kper="1" kstp="35" mode="normal"


 CONCENTRATION WILL BE SAVED ON UNIT 1953 AT END OF TIME STEP   35, STRESS PERIOD    1

end timestep


start timestep kper="1" kstp="36" mode="normal"


 CONCENTRATION WILL BE SAVED ON UNIT 1953 AT END OF TIME STEP   36, STRESS PERIOD    1

end timestep


start timestep kper="1" kstp="37" mode="normal"


 CONCENTRATION WILL BE SAVED ON UNIT 1953 AT END OF TIME STEP   37, STRESS PERIOD    1

end timestep


start timestep kper="1" kstp="38" mode="normal"


 CONCENTRATION WILL BE SAVED ON UNIT 1953 AT END OF TIME STEP   38, STRESS PERIOD    1

end timestep


start timestep kper="1" kstp="39" mode="normal"


 CONCENTRATION WILL BE SAVED ON UNIT 1953 AT END OF TIME STEP   39, STRESS PERIOD    1

end timestep


start timestep kper="1" kstp="40" mode="normal"


 CONCENTRATION WILL BE SAVED ON UNIT 1953 AT END OF TIME STEP   40, STRESS PERIOD    1

end timestep


start timestep kper="1" kstp="41" mode="normal"


 CONCENTRATION WILL BE SAVED ON UNIT 1953 AT END OF TIME STEP   41, STRESS PERIOD    1

end timestep


start timestep kper="1" kstp="42" mode="normal"


 CONCENTRATION WILL BE SAVED ON UNIT 1953 AT END OF TIME STEP   42, STRESS PERIOD    1

end timestep


start timestep kper="1" kstp="43" mode="normal"


 CONCENTRATION WILL BE SAVED ON UNIT 1953 AT END OF TIME STEP   43, STRESS PERIOD    1

end timestep


start timestep kper="1" kstp="44" mode="normal"


 CONCENTRATION WILL BE SAVED ON UNIT 1953 AT END OF TIME STEP   44, STRESS PERIOD    1

end timestep


start timestep kper="1" kstp="45" mode="normal"


 CONCENTRATION WILL BE SAVED ON UNIT 1953 AT END OF TIME STEP   45, STRESS PERIOD    1

end timestep


start timestep kper="1" kstp="46" mode="normal"


 CONCENTRATION WILL BE SAVED ON UNIT 1953 AT END OF TIME STEP   46, STRESS PERIOD    1

end timestep


start timestep kper="1" kstp="47" mode="normal"


 CONCENTRATION WILL BE SAVED ON UNIT 1953 AT END OF TIME STEP   47, STRESS PERIOD    1

end timestep


start timestep kper="1" kstp="48" mode="normal"


 CONCENTRATION WILL BE SAVED ON UNIT 1953 AT END OF TIME STEP   48, STRESS PERIOD    1

end timestep


start timestep kper="1" kstp="49" mode="normal"


 CONCENTRATION WILL BE SAVED ON UNIT 1953 AT END OF TIME STEP   49, STRESS PERIOD    1

end timestep


start timestep kper="1" kstp="50" mode="normal"


 CONCENTRATION WILL BE SAVED ON UNIT 1953 AT END OF TIME STEP   50, STRESS PERIOD    1

end timestep


start timestep kper="1" kstp="51" mode="normal"


 CONCENTRATION WILL BE SAVED ON UNIT 1953 AT END OF TIME STEP   51, STRESS PERIOD    1

end timestep


start timestep kper="1" kstp="52" mode="normal"


 CONCENTRATION WILL BE SAVED ON UNIT 1953 AT END OF TIME STEP   52, STRESS PERIOD    1

end timestep


start timestep kper="1" kstp="53" mode="normal"


 CONCENTRATION WILL BE SAVED ON UNIT 1953 AT END OF TIME STEP   53, STRESS PERIOD    1

end timestep


start timestep kper="1" kstp="54" mode="normal"


 CONCENTRATION WILL BE SAVED ON UNIT 1953 AT END OF TIME STEP   54, STRESS PERIOD    1

end timestep


start timestep kper="1" kstp="55" mode="normal"


 CONCENTRATION WILL BE SAVED ON UNIT 1953 AT END OF TIME STEP   55, STRESS PERIOD    1

end timestep


start timestep kper="1" kstp="56" mode="normal"


 CONCENTRATION WILL BE SAVED ON UNIT 1953 AT END OF TIME STEP   56, STRESS PERIOD    1

end timestep


start timestep kper="1" kstp="57" mode="normal"


 CONCENTRATION WILL BE SAVED ON UNIT 1953 AT END OF TIME STEP   57, STRESS PERIOD    1

end timestep


start timestep kper="1" kstp="58" mode="normal"


 CONCENTRATION WILL BE SAVED ON UNIT 1953 AT END OF TIME STEP   58, STRESS PERIOD    1

end timestep


start timestep kper="1" kstp="59" mode="normal"


 CONCENTRATION WILL BE SAVED ON UNIT 1953 AT END OF TIME STEP   59, STRESS PERIOD    1

end timestep


start timestep kper="1" kstp="60" mode="normal"


 CONCENTRATION WILL BE SAVED ON UNIT 1953 AT END OF TIME STEP   60, STRESS PERIOD    1

end timestep


start timestep kper="1" kstp="61" mode="normal"


 CONCENTRATION WILL BE SAVED ON UNIT 1953 AT END OF TIME STEP   61, STRESS PERIOD    1

end timestep


start timestep kper="1" kstp="62" mode="normal"


 CONCENTRATION WILL BE SAVED ON UNIT 1953 AT END OF TIME STEP   62, STRESS PERIOD    1

end timestep


start timestep kper="1" kstp="63" mode="normal"


 CONCENTRATION WILL BE SAVED ON UNIT 1953 AT END OF TIME STEP   63, STRESS PERIOD    1

end timestep


start timestep kper="1" kstp="64" mode="normal"


 CONCENTRATION WILL BE SAVED ON UNIT 1953 AT END OF TIME STEP   64, STRESS PERIOD    1

end timestep


start timestep kper="1" kstp="65" mode="normal"


 CONCENTRATION WILL BE SAVED ON UNIT 1953 AT END OF TIME STEP   65, STRESS PERIOD    1

end timestep


start timestep kper="1" kstp="66" mode="normal"


 CONCENTRATION WILL BE SAVED ON UNIT 1953 AT END OF TIME STEP   66, STRESS PERIOD    1

end timestep


start timestep kper="1" kstp="67" mode="normal"


 CONCENTRATION WILL BE SAVED ON UNIT 1953 AT END OF TIME STEP   67, STRESS PERIOD    1

end timestep


start timestep kper="1" kstp="68" mode="normal"


 CONCENTRATION WILL BE SAVED ON UNIT 1953 AT END OF TIME STEP   68, STRESS PERIOD    1

end timestep


start timestep kper="1" kstp="69" mode="normal"


 CONCENTRATION WILL BE SAVED ON UNIT 1953 AT END OF TIME STEP   69, STRESS PERIOD    1

end timestep


start timestep kper="1" kstp="70" mode="normal"


 CONCENTRATION WILL BE SAVED ON UNIT 1953 AT END OF TIME STEP   70, STRESS PERIOD    1

end timestep


start timestep kper="1" kstp="71" mode="normal"


 CONCENTRATION WILL BE SAVED ON UNIT 1953 AT END OF TIME STEP   71, STRESS PERIOD    1

end timestep


start timestep kper="1" kstp="72" mode="normal"


 CONCENTRATION WILL BE SAVED ON UNIT 1953 AT END OF TIME STEP   72, STRESS PERIOD    1

end timestep


start timestep kper="1" kstp="73" mode="normal"


 CONCENTRATION WILL BE SAVED ON UNIT 1953 AT END OF TIME STEP   73, STRESS PERIOD    1

end timestep


start timestep kper="1" kstp="74" mode="normal"


 CONCENTRATION WILL BE SAVED ON UNIT 1953 AT END OF TIME STEP   74, STRESS PERIOD    1

end timestep


start timestep kper="1" kstp="75" mode="normal"


 CONCENTRATION WILL BE SAVED ON UNIT 1953 AT END OF TIME STEP   75, STRESS PERIOD    1

end timestep


start timestep kper="1" kstp="76" mode="normal"


 CONCENTRATION WILL BE SAVED ON UNIT 1953 AT END OF TIME STEP   76, STRESS PERIOD    1

end timestep


start timestep kper="1" kstp="77" mode="normal"


 CONCENTRATION WILL BE SAVED ON UNIT 1953 AT END OF TIME STEP   77, STRESS PERIOD    1

end timestep


start timestep kper="1" kstp="78" mode="normal"


 CONCENTRATION WILL BE SAVED ON UNIT 1953 AT END OF TIME STEP   78, STRESS PERIOD    1

end timestep


start timestep kper="1" kstp="79" mode="normal"


 CONCENTRATION WILL BE SAVED ON UNIT 1953 AT END OF TIME STEP   79, STRESS PERIOD    1

end timestep


start timestep kper="1" kstp="80" mode="normal"


 CONCENTRATION WILL BE SAVED ON UNIT 1953 AT END OF TIME STEP   80, STRESS PERIOD    1

end timestep


start timestep kper="1" kstp="81" mode="normal"


 CONCENTRATION WILL BE SAVED ON UNIT 1953 AT END OF TIME STEP   81, STRESS PERIOD    1

end timestep


start timestep kper="1" kstp="82" mode="normal"


 CONCENTRATION WILL BE SAVED ON UNIT 1953 AT END OF TIME STEP   82, STRESS PERIOD    1

end timestep


start timestep kper="1" kstp="83" mode="normal"


 CONCENTRATION WILL BE SAVED ON UNIT 1953 AT END OF TIME STEP   83, STRESS PERIOD    1

end timestep


start timestep kper="1" kstp="84" mode="normal"


 CONCENTRATION WILL BE SAVED ON UNIT 1953 AT END OF TIME STEP   84, STRESS PERIOD    1

end timestep


start timestep kper="1" kstp="85" mode="normal"


 CONCENTRATION WILL BE SAVED ON UNIT 1953 AT END OF TIME STEP   85, STRESS PERIOD    1

end timestep


start timestep kper="1" kstp="86" mode="normal"


 CONCENTRATION WILL BE SAVED ON UNIT 1953 AT END OF TIME STEP   86, STRESS PERIOD    1

end timestep


start timestep kper="1" kstp="87" mode="normal"


 CONCENTRATION WILL BE SAVED ON UNIT 1953 AT END OF TIME STEP   87, STRESS PERIOD    1

end timestep


start timestep kper="1" kstp="88" mode="normal"


 CONCENTRATION WILL BE SAVED ON UNIT 1953 AT END OF TIME STEP   88, STRESS PERIOD    1

end timestep


start timestep kper="1" kstp="89" mode="normal"


 CONCENTRATION WILL BE SAVED ON UNIT 1953 AT END OF TIME STEP   89, STRESS PERIOD    1

end timestep


start timestep kper="1" kstp="90" mode="normal"


 CONCENTRATION WILL BE SAVED ON UNIT 1953 AT END OF TIME STEP   90, STRESS PERIOD    1

end timestep


start timestep kper="1" kstp="91" mode="normal"


 CONCENTRATION WILL BE SAVED ON UNIT 1953 AT END OF TIME STEP   91, STRESS PERIOD    1

end timestep


start timestep kper="1" kstp="92" mode="normal"


 CONCENTRATION WILL BE SAVED ON UNIT 1953 AT END OF TIME STEP   92, STRESS PERIOD    1

end timestep


start timestep kper="1" kstp="93" mode="normal"


 CONCENTRATION WILL BE SAVED ON UNIT 1953 AT END OF TIME STEP   93, STRESS PERIOD    1

end timestep


start timestep kper="1" kstp="94" mode="normal"


 CONCENTRATION WILL BE SAVED ON UNIT 1953 AT END OF TIME STEP   94, STRESS PERIOD    1

end timestep


start timestep kper="1" kstp="95" mode="normal"


 CONCENTRATION WILL BE SAVED ON UNIT 1953 AT END OF TIME STEP   95, STRESS PERIOD    1

end timestep


start timestep kper="1" kstp="96" mode="normal"


 CONCENTRATION WILL BE SAVED ON UNIT 1953 AT END OF TIME STEP   96, STRESS PERIOD    1

end timestep


start timestep kper="1" kstp="97" mode="normal"


 CONCENTRATION WILL BE SAVED ON UNIT 1953 AT END OF TIME STEP   97, STRESS PERIOD    1

end timestep


start timestep kper="1" kstp="98" mode="normal"


 CONCENTRATION WILL BE SAVED ON UNIT 1953 AT END OF TIME STEP   98, STRESS PERIOD    1

end timestep


start timestep kper="1" kstp="99" mode="normal"


 CONCENTRATION WILL BE SAVED ON UNIT 1953 AT END OF TIME STEP   99, STRESS PERIOD    1

end timestep


start timestep kper="1" kstp="100" mode="normal"

1
  CONCENTRATION IN LAYER   1 AT END OF TIME STEP 100 IN STRESS PERIOD    1
  ---------------------------------------------------------------------------

                1               2               3               4               5               6               7               8               9              10
               11              12              13              14              15              16              17              18              19              20
               21              22              23              24              25
 ................................................................................................................................................................
   1  110691.7907     110690.2910     110691.2780     110693.8851     110694.3368     110694.1972     110694.5573     110694.8310     110695.2377     110695.2704    
      110695.1013     110694.7577     110694.3937     110694.0741     110693.7921     110693.5942     110693.4107     110693.2166     110693.0048     110692.7740    
      110692.5273     110692.2731     110692.0240     110691.7964     110691.6068    
1
  CONCENTRATION IN LAYER   2 AT END OF TIME STEP 100 IN STRESS PERIOD    1
  ---------------------------------------------------------------------------

                1               2               3               4               5               6               7               8               9              10
               11              12              13              14              15              16              17              18              19              20
               21              22              23              24              25
 ................................................................................................................................................................
   1  110691.9847     110690.8546     110691.7035     110693.9444     110694.2666     110694.5608     110694.7196     110694.9059     110695.2329     110695.2556    
      110695.0840     110694.7482     110694.3913     110694.0755     110693.7938     110693.5960     110693.4124     110693.2183     110693.0065     110692.7754    
      110692.5284     110692.2739     110692.0246     110691.7962     110691.6069    
1
  CONCENTRATION IN LAYER   3 AT END OF TIME STEP 100 IN STRESS PERIOD    1
  ---------------------------------------------------------------------------

                1               2               3               4               5               6               7               8               9              10
               11              12              13              14              15              16              17              18              19              20
               21              22              23              24              25
 ................................................................................................................................................................
   1  110692.5994     110691.9189     110692.4879     110694.0335     110694.1873     110694.5530     110694.9174     110695.0206     110695.2222     110695.2280    
      110695.0525     110694.7311     110694.3869     110694.0776     110693.7981     110693.5991     110693.4155     110693.2216     110693.0095     110692.7779    
      110692.5303     110692.2752     110692.0258     110691.7967     110691.6073    
1
  CONCENTRATION IN LAYER   4 AT END OF TIME STEP 100 IN STRESS PERIOD    1
  ---------------------------------------------------------------------------

                1               2               3               4               5               6               7               8               9              10
               11              12              13              14              15              16              17              18              19              20
               21              22              23              24              25
 ................................................................................................................................................................
   1  110695.1670     110693.2808     110693.3528     110694.0979     110694.2695     110694.5968     110695.0423     110695.1132     110695.2095     110695.1937    
      110695.0121     110694.7096     110694.3812     110694.0803     110693.8056     110693.6032     110693.4194     110693.2259     110693.0136     110692.7813    
      110692.5329     110692.2773     110692.0270     110691.7976     110691.6079    
1
  CONCENTRATION IN LAYER   5 AT END OF TIME STEP 100 IN STRESS PERIOD    1
  ---------------------------------------------------------------------------

                1               2               3               4               5               6               7               8               9              10
               11              12              13              14              15              16              17              18              19              20
               21              22              23              24              25
 ................................................................................................................................................................
   1  110695.1670     110694.0801     110694.1125     110694.2570     110694.3561     110694.6548     110695.0657     110695.1370     110695.2014     110695.1546    
      110694.9693     110694.6869     110694.3748     110694.0840     110693.8155     110693.6078     110693.4237     110693.2308     110693.0184     110692.7854    
      110692.5361     110692.2798     110692.0285     110691.7988     110691.6088    
1
  CONCENTRATION IN LAYER   6 AT END OF TIME STEP 100 IN STRESS PERIOD    1
  ---------------------------------------------------------------------------

                1               2               3               4               5               6               7               8               9              10
               11              12              13              14              15              16              17              18              19              20
               21              22              23              24              25
 ................................................................................................................................................................
   1  110695.1670     110694.5103     110694.6316     110694.4289     110694.4938     110694.7197     110695.0505     110695.1334     110695.1640     110695.1099    
      110694.9262     110694.6635     110694.3678     110694.0890     110693.8280     110693.6123     110693.4278     110693.2360     110693.0235     110692.7897    
      110692.5396     110692.2822     110692.0301     110691.8000     110691.6097    
1
  CONCENTRATION IN LAYER   7 AT END OF TIME STEP 100 IN STRESS PERIOD    1
  ---------------------------------------------------------------------------

                1               2               3               4               5               6               7               8               9              10
               11              12              13              14              15              16              17              18              19              20
               21              22              23              24              25
 ................................................................................................................................................................
   1  110695.1670     110694.7742     110694.8774     110694.6176     110694.6408     110694.7838     110695.0275     110695.1090     110695.1182     110695.0612    
      110694.8881     110694.6344     110694.3607     110694.0966     110693.8425     110693.6161     110693.4314     110693.2409     110693.0285     110692.7940    
      110692.5429     110692.2845     110692.0318     110691.8012     110691.6106    
1
  CONCENTRATION IN LAYER   8 AT END OF TIME STEP 100 IN STRESS PERIOD    1
  ---------------------------------------------------------------------------

                1               2               3               4               5               6               7               8               9              10
               11              12              13              14              15              16              17              18              19              20
               21              22              23              24              25
 ................................................................................................................................................................
   1  110695.1670     110694.9361     110694.9890     110694.7666     110694.7597     110694.8396     110695.0087     110695.0778     110695.0756     110695.0169    
      110694.8544     110694.6104     110694.3473     110694.1080     110693.8579     110693.6181     110693.4342     110693.2453     110693.0330     110692.7977    
      110692.5456     110692.2864     110692.0333     110691.8023     110691.6114    
1
  CONCENTRATION IN LAYER   9 AT END OF TIME STEP 100 IN STRESS PERIOD    1
  ---------------------------------------------------------------------------

                1               2               3               4               5               6               7               8               9              10
               11              12              13              14              15              16              17              18              19              20
               21              22              23              24              25
 ................................................................................................................................................................
   1  110695.1670     110695.0261     110695.0416     110694.8663     110694.8350     110694.8806     110694.9971     110695.0513     110695.0439     110694.9835    
      110694.8289     110694.5932     110694.3323     110694.1221     110693.8698     110693.6181     110693.4360     110693.2486     110693.0365     110692.8006    
      110692.5477     110692.2878     110692.0344     110691.8031     110691.6119    
1
  CONCENTRATION IN LAYER  10 AT END OF TIME STEP 100 IN STRESS PERIOD    1
  ---------------------------------------------------------------------------

                1               2               3               4               5               6               7               8               9              10
               11              12              13              14              15              16              17              18              19              20
               21              22              23              24              25
 ................................................................................................................................................................
   1  110695.1670     110695.0653     110695.0634     110694.9160     110694.8705     110694.9019     110694.9921     110695.0366     110695.0270     110694.9658    
      110694.8151     110694.5842     110694.3245     110694.1292     110693.8765     110693.6182     110693.4370     110693.2507     110693.0388     110692.8027    
      110692.5491     110692.2886     110692.0349     110691.8035     110691.6123    

 CONCENTRATION WILL BE SAVED ON UNIT 1953 AT END OF TIME STEP  100, STRESS PERIOD    1


  MASS BUDGET FOR ENTIRE MODEL AT END OF TIME STEP  100, STRESS PERIOD   1
  ---------------------------------------------------------------------------------------------------

     CUMULATIVE MASS      M       RATES FOR THIS TIME STEP      M/T          PACKAGE NAME    
     ------------------                 ------------------------                     ----------------

           IN:                                      IN:
           ---                                      ---
     STORAGE-AQUEOUS =        3849.2060       STORAGE-AQUEOUS =           0.5291     MST                              
                 CHD =           0.0000                   CHD =           0.0000     SSM_CHD                          
                 CHD =    13836595.0057                   CHD =        6918.2974     SSM_CHDTAIL                      
                 CNC =    32286705.3303                   CNC =       16143.3177     CNC                              

            TOTAL IN =    46127149.5419              TOTAL IN =       23062.1443

          OUT:                                     OUT:
          ----                                     ----
     STORAGE-AQUEOUS =        4799.3814       STORAGE-AQUEOUS =           1.3923     MST                              
                 CHD =    46122335.6674                   CHD =       23060.7519     SSM_CHD                          
                 CHD =           0.0000                   CHD =           0.0000     SSM_CHDTAIL                      
                 CNC =          14.4931                   CNC =           0.0000     CNC                              

           TOTAL OUT =    46127149.5419             TOTAL OUT =       23062.1443

            IN - OUT =       3.3528E-07              IN - OUT =       2.9104E-10

 PERCENT DISCREPANCY =           0.00     PERCENT DISCREPANCY =           0.00




         TIME SUMMARY AT END OF TIME STEP  100 IN STRESS PERIOD    1
                    SECONDS     MINUTES      HOURS       DAYS        YEARS
                    -----------------------------------------------------------
   TIME STEP LENGTH 1.72800E+06  28800.      480.00      20.000     5.47570E-02
 STRESS PERIOD TIME 1.72800E+08 2.88000E+06  48000.      2000.0      5.4757    
         TOTAL TIME 1.72800E+08 2.88000E+06  48000.      2000.0      5.4757    


end timestep

