                                   MODFLOW 6
                U.S. GEOLOGICAL SURVEY MODULAR HYDROLOGIC MODEL
                       GROUNDWATER TRANSPORT MODEL (GWT)
                VERSION 6.5.0.dev0+prt (preliminary) 10/07/2023
                               ***DEVELOP MODE***

   MODFLOW 6 compiled Oct 07 2023 02:19:02 with Intel(R) Fortran Intel(R) 64
   Compiler Classic for applications running on Intel(R) 64, Version 2021.7.0
                             Build 20220726_000000

This software is preliminary or provisional and is subject to 
revision. It is being provided to meet the need for timely best 
science. The software has not received final approval by the U.S. 
Geological Survey (USGS). No warranty, expressed or implied, is made 
by the USGS or the U.S. Government as to the functionality of the 
software and related material nor shall the fact of release 
constitute any such warranty. The software is provided on the 
condition that neither the USGS nor the U.S. Government shall be held 
liable for any damages resulting from the authorized or unauthorized 
use of the software.


As a work of the United States Government, this USGS product is 
in the public domain within the United States. You can copy, 
modify, distribute, and perform the work, even for commercial 
purposes, all without asking permission. Additionally, USGS 
waives copyright and related rights in the work worldwide 
through CC0 1.0 Universal Public Domain Dedication 
(https://creativecommons.org/publicdomain/zero/1.0/).

The following GNU Lesser General Public License (LGPL) libraries
are used in this USGS product:

    SPARSKIT version 2.0
      ilut, luson, and qsplit 
      (https://www-users.cse.umn.edu/~saad/software/SPARSKIT/)

    RCM - Reverse Cuthill McKee Ordering
      (https://people.math.sc.edu/Burkardt/f_src/rcm/rcm.html)

    BLAS - Basic Linear Algebra Subprograms Level 1
      (https://people.math.sc.edu/Burkardt/f_src/blas1_d/blas1_d.html)

    SPARSEKIT - Sparse Matrix Utility Package
      amux, dperm, dvperm, rperm, and cperm
      (https://people.sc.fsu.edu/~jburkardt/f77_src/sparsekit/sparsekit.html)

The following BSD-3 License libraries are used in this USGS product:

    Modern Fortran DAG Library
      Copyright (c) 2018, Jacob Williams
      All rights reserved.
      (https://github.com/jacobwilliams/daglib)

MODFLOW 6 compiler options: /Isrc\libmf6core.a.p /Isrc /I..\src
/Isrc\libmf6_external.a.p /MTd /nologo /warn:general /warn:truncated_source
/stand:f08 /Zi /traceback /O2 /fpe:0 /heap-arrays:0 /traceback /fpp
/Qdiag-disable:7416 /Qdiag-disable:7025 /Qdiag-disable:5268
/Fdsrc\libmf6core.a.p\Utilities_compilerversion.F90.pdb
/module:src\libmf6core.a.p
/Fosrc/libmf6core.a.p/Utilities_compilerversion.F90.obj /c

System command used to initiate simulation:
c:\Users\portega\anaconda3\envs\mf6rtm\python.exe -m ipykernel_launcher --f=c:\Users\portega\AppData\Roaming\jupyter\runtime\kernel-v2-17404iCBvKc1FbHvz.json

MODFLOW was compiled using uniform precision.

Real Variables
  KIND: 8
  TINY (smallest non-zero value):    2.225074-308
  HUGE (largest value):    1.797693+308
  PRECISION: 15
  SIZE IN BITS: 64

Integer Variables
  KIND: 4
  HUGE (largest value): 2147483647
  SIZE IN BITS: 32

Long Integer Variables
  KIND: 8
  HUGE (largest value): 9223372036854775807
  SIZE IN BITS: 64

Logical Variables
  KIND: 4
  SIZE IN BITS: 32
 
 NAMEFILE OPTIONS:
 END NAMEFILE OPTIONS:

 DIS -- STRUCTURED GRID DISCRETIZATION PACKAGE, VERSION 2 : 3/27/2014 - INPUT READ FROM MEMPATH: __INPUT__/H/DIS                                   


 DSP-- DISPERSION PACKAGE, VERSION 1, 1/24/2018 INPUT READ FROM MEMPATH: __INPUT__/H/DSP                                   


 Setting Discretization Options
    Model length unit [0=UND, 1=FEET, 2=METERS, 3=CENTIMETERS] set as 2
 End Setting Discretization Options

 Setting Discretization Dimensions
    NLAY = 10
    NROW = 1
    NCOL = 25
 End Setting Discretization Dimensions

 Setting Discretization Griddata
    DELR set from input file
    DELC set from input file
    TOP set from input file
    BOTM set from input file
    IDOMAIN set from input file
 End Setting Discretization Griddata


 FMI -- FLOW MODEL INTERFACE,' VERSION 2, 8/17/2023
  FLOWS PROVIDED BY A GWF MODEL IN THIS SIMULATION

 ADV-- ADVECTION PACKAGE, VERSION 1, 8/25/2017 INPUT READ FROM UNIT 5654


 # File generated by Flopy version 3.5.0.dev0 on 07/12/2024 at 09:44:05.
 PROCESSING ADVECTION OPTIONS
    ADVECTION WEIGHTING SCHEME HAS BEEN SET TO: TVD
 END OF ADVECTION OPTIONS
 Setting DSP Options
    XT3D formulation [0=INACTIVE, 1=ACTIVE, 3=ACTIVE RHS] set to: 0
 End Setting DSP Options

 Setting DSP Griddata
    ALH set from input file
    ATH1 set from input file
    ATV set from input file
 End Setting DSP Griddata


 CNC   -- CNC PACKAGE, VERSION 8, 2/22/2014 INPUT READ FROM UNIT 5688
 # File generated by Flopy version 3.5.0.dev0 on 07/12/2024 at 09:44:05.

 PROCESSING CNC OPTIONS
    CNC FLOWS WILL BE PRINTED TO LISTING FILE.
    FLOWS WILL BE SAVED TO BUDGET FILE SPECIFIED IN OUTPUT CONTROL
 END OF CNC OPTIONS

 PROCESSING CNC DIMENSIONS
    MAXBOUND =       7
 END OF CNC DIMENSIONS

 IC -- INITIAL CONDITIONS PACKAGE, VERSION 8, 3/28/2015 INPUT READ FROM UNIT 5652
 # File generated by Flopy version 3.5.0.dev0 on 07/12/2024 at 09:44:05.
 PROCESSING GRIDDATA

 OPENED H.ic_strt_layer1.txt
 FILE TYPE:OPEN/CLOSE   UNIT 6530   STATUS:OLD                 
 FORMAT:FORMATTED              ACCESS:SEQUENTIAL          
 ACTION:READ                


 OPENED H.ic_strt_layer2.txt
 FILE TYPE:OPEN/CLOSE   UNIT 6531   STATUS:OLD                 
 FORMAT:FORMATTED              ACCESS:SEQUENTIAL          
 ACTION:READ                


 OPENED H.ic_strt_layer3.txt
 FILE TYPE:OPEN/CLOSE   UNIT 6532   STATUS:OLD                 
 FORMAT:FORMATTED              ACCESS:SEQUENTIAL          
 ACTION:READ                


 OPENED H.ic_strt_layer4.txt
 FILE TYPE:OPEN/CLOSE   UNIT 6533   STATUS:OLD                 
 FORMAT:FORMATTED              ACCESS:SEQUENTIAL          
 ACTION:READ                


 OPENED H.ic_strt_layer5.txt
 FILE TYPE:OPEN/CLOSE   UNIT 6534   STATUS:OLD                 
 FORMAT:FORMATTED              ACCESS:SEQUENTIAL          
 ACTION:READ                


 OPENED H.ic_strt_layer6.txt
 FILE TYPE:OPEN/CLOSE   UNIT 6535   STATUS:OLD                 
 FORMAT:FORMATTED              ACCESS:SEQUENTIAL          
 ACTION:READ                


 OPENED H.ic_strt_layer7.txt
 FILE TYPE:OPEN/CLOSE   UNIT 6536   STATUS:OLD                 
 FORMAT:FORMATTED              ACCESS:SEQUENTIAL          
 ACTION:READ                


 OPENED H.ic_strt_layer8.txt
 FILE TYPE:OPEN/CLOSE   UNIT 6537   STATUS:OLD                 
 FORMAT:FORMATTED              ACCESS:SEQUENTIAL          
 ACTION:READ                


 OPENED H.ic_strt_layer9.txt
 FILE TYPE:OPEN/CLOSE   UNIT 6538   STATUS:OLD                 
 FORMAT:FORMATTED              ACCESS:SEQUENTIAL          
 ACTION:READ                


 OPENED H.ic_strt_layer10.txt
 FILE TYPE:OPEN/CLOSE   UNIT 6539   STATUS:OLD                 
 FORMAT:FORMATTED              ACCESS:SEQUENTIAL          
 ACTION:READ                

 END PROCESSING GRIDDATA

 MST -- MOBILE STORAGE AND TRANSFER PACKAGE, VERSION 1, 7/29/2020 INPUT READ FROM UNIT 5653


 # File generated by Flopy version 3.5.0.dev0 on 07/12/2024 at 09:44:05.
 PROCESSING MOBILE STORAGE AND TRANSFER OPTIONS
 END OF MOBILE STORAGE AND TRANSFER OPTIONS
 PROCESSING GRIDDATA

 OPENED H.mst_porosity.txt
 FILE TYPE:OPEN/CLOSE   UNIT 6540   STATUS:OLD                 
 FORMAT:FORMATTED              ACCESS:SEQUENTIAL          
 ACTION:READ                

 END PROCESSING GRIDDATA

 SSM -- SOURCE-SINK MIXING PACKAGE, VERSION 1, 8/25/2017 INPUT READ FROM UNIT 5686


 # File generated by Flopy version 3.5.0.dev0 on 07/12/2024 at 09:44:05.
 PROCESSING SSM OPTIONS
    SSM FLOW INFORMATION WILL BE PRINTED TO LISTING FILE WHENEVER ICBCFL IS NOT ZERO.
    CELL-BY-CELL FLOW INFORMATION WILL BE SAVED TO BINARY FILE WHENEVER ICBCFL IS NOT ZERO.
 END OF SSM OPTIONS

 OPENED H.ssm_sources.txt
 FILE TYPE:OPEN/CLOSE   UNIT 6541   STATUS:OLD                 
 FORMAT:FORMATTED              ACCESS:SEQUENTIAL          
 ACTION:READ                

 PROCESSING SOURCES
 AUX SOURCE DETECTED.
    USING AUX COLUMN 1 IN PACKAGE CHD
 END PROCESSING SOURCES
 OPTIONAL FILEINPUT BLOCK NOT FOUND.  CONTINUING.
      THE LAST TIME STEP WILL BE PRINTED
      THE LAST TIME STEP WILL BE PRINTED
 # File generated by Flopy version 3.5.0.dev0 on 07/12/2024 at 09:44:05.

 PROCESSING OC OPTIONS

    BUDGET INFORMATION WILL BE WRITTEN TO:
      UNIT NUMBER: 6542
      FILE NAME: H.cbb

 OPENED H.cbb
 FILE TYPE:DATA(BINARY)   UNIT 6542   STATUS:REPLACE             
 FORMAT:UNFORMATTED            ACCESS:STREAM              
 ACTION:READWRITE           

    CONCENTRATION INFORMATION WILL BE WRITTEN TO:
      UNIT NUMBER: 6543
      FILE NAME: H.ucn

 OPENED H.ucn
 FILE TYPE:DATA(BINARY)   UNIT 6543   STATUS:REPLACE             
 FORMAT:UNFORMATTED            ACCESS:STREAM              
 ACTION:READWRITE           

 END OF OC OPTIONS

start timestep kper="1" kstp="1" mode="normal"


 BEGIN READING OUTPUT CONTROL FOR STRESS PERIOD 1
      ALL TIME STEPS WILL BE SAVED
      ALL TIME STEPS WILL BE SAVED
      ALL TIME STEPS WILL BE PRINTED
      ALL TIME STEPS WILL BE PRINTED

 END READING OUTPUT CONTROL FOR STRESS PERIOD 1

 OPENED H.cnc_stress_period_data_1.txt
 FILE TYPE:OPEN/CLOSE   UNIT 6726   STATUS:OLD                 
 FORMAT:FORMATTED              ACCESS:SEQUENTIAL          
 ACTION:READ                

 UBDSV06 SAVING  SOURCE-SINK MIX IN MODEL H                PACKAGE H               CONNECTED TO MODEL H                PACKAGE SSM              ON UNIT   6542 AT TIME STEP      1, STRESS PERIOD      1
 UBDSV06 SAVING              CNC IN MODEL H                PACKAGE H               CONNECTED TO MODEL H                PACKAGE CNC              ON UNIT   6542 AT TIME STEP      1, STRESS PERIOD      1

 SSM PACKAGE (SSM) FLOW RATES   PERIOD      1   STEP        1
 ------------------------------------------------------------------------------------------------
   NUMBER   CELLID                   BOUND Q        SSM CONC          RATE         PACKAGE NAME  
 ------------------------------------------------------------------------------------------------
     1      (1,1,1)               2.08333361E-02  110692.76       2306.0995            CHD       
     2      (2,1,1)               2.08333361E-02  110692.76       2306.0995            CHD       
     3      (3,1,1)               2.08333361E-02  110692.76       2306.0995            CHD       
     4      (4,1,1)               0.0000000       0.0000000       0.0000000            CHD       
     5      (5,1,1)               0.0000000       0.0000000       0.0000000            CHD       
     6      (6,1,1)               0.0000000       0.0000000       0.0000000            CHD       
     7      (7,1,1)               0.0000000       0.0000000       0.0000000            CHD       
     8      (8,1,1)               0.0000000       0.0000000       0.0000000            CHD       
     9      (9,1,1)               0.0000000       0.0000000       0.0000000            CHD       
     10     (10,1,1)              0.0000000       0.0000000       0.0000000            CHD       
     11     (1,1,25)             -2.08333402E-02  110695.17      -2306.1501            CHD       
     12     (2,1,25)             -2.08333402E-02  110695.17      -2306.1501            CHD       
     13     (3,1,25)             -2.08333402E-02  110695.17      -2306.1501            CHD       
     14     (4,1,25)             -2.08333403E-02  110695.17      -2306.1501            CHD       
     15     (5,1,25)             -2.08333403E-02  110695.17      -2306.1501            CHD       
     16     (6,1,25)             -2.08333403E-02  110695.17      -2306.1501            CHD       
     17     (7,1,25)             -2.08333403E-02  110695.17      -2306.1501            CHD       
     18     (8,1,25)             -2.08333403E-02  110695.17      -2306.1501            CHD       
     19     (9,1,25)             -2.08333403E-02  110695.17      -2306.1501            CHD       
     20     (10,1,25)            -2.08333403E-02  110695.17      -2306.1501            CHD       
 ------------------------------------------------------------------------------------------------




 CNC PACKAGE (CNC) FLOW RATES   PERIOD      1   STEP        1
 -----------------------------------------------
   NUMBER   CELLID                    RATE      
 -----------------------------------------------
     1      (4,1,1)               2306.1851     
     2      (5,1,1)               2306.1497     
     3      (6,1,1)               2306.1497     
     4      (7,1,1)               2306.1496     
     5      (8,1,1)               2306.1496     
     6      (9,1,1)               2306.1496     
     7      (10,1,1)              2306.1496     
 -----------------------------------------------



1
  CONCENTRATION IN LAYER   1 AT END OF TIME STEP   1 IN STRESS PERIOD    1
  ---------------------------------------------------------------------------

                1               2               3               4               5               6               7               8               9              10
               11              12              13              14              15              16              17              18              19              20
               21              22              23              24              25
 ................................................................................................................................................................
   1  110694.9044     110695.1217     110695.1629     110695.1672     110695.1678     110695.1676     110695.1672     110695.1670     110695.1672     110695.1676    
      110695.1676     110695.1673     110695.1669     110695.1668     110695.1668     110695.1669     110695.1669     110695.1668     110695.1667     110695.1668    
      110695.1668     110695.1669     110695.1670     110695.1671     110695.1672    
1
  CONCENTRATION IN LAYER   2 AT END OF TIME STEP   1 IN STRESS PERIOD    1
  ---------------------------------------------------------------------------

                1               2               3               4               5               6               7               8               9              10
               11              12              13              14              15              16              17              18              19              20
               21              22              23              24              25
 ................................................................................................................................................................
   1  110694.9287     110695.1273     110695.1635     110695.1675     110695.1683     110695.1679     110695.1671     110695.1668     110695.1673     110695.1680    
      110695.1680     110695.1674     110695.1667     110695.1665     110695.1666     110695.1667     110695.1667     110695.1665     110695.1664     110695.1665    
      110695.1666     110695.1668     110695.1669     110695.1671     110695.1672    
1
  CONCENTRATION IN LAYER   3 AT END OF TIME STEP   1 IN STRESS PERIOD    1
  ---------------------------------------------------------------------------

                1               2               3               4               5               6               7               8               9              10
               11              12              13              14              15              16              17              18              19              20
               21              22              23              24              25
 ................................................................................................................................................................
   1  110694.9974     110695.1392     110695.1644     110695.1681     110695.1690     110695.1684     110695.1670     110695.1665     110695.1673     110695.1685    
      110695.1685     110695.1675     110695.1664     110695.1660     110695.1662     110695.1664     110695.1663     110695.1661     110695.1660     110695.1661    
      110695.1663     110695.1666     110695.1668     110695.1671     110695.1672    
1
  CONCENTRATION IN LAYER   4 AT END OF TIME STEP   1 IN STRESS PERIOD    1
  ---------------------------------------------------------------------------

                1               2               3               4               5               6               7               8               9              10
               11              12              13              14              15              16              17              18              19              20
               21              22              23              24              25
 ................................................................................................................................................................
   1  110695.1670     110695.1559     110695.1653     110695.1685     110695.1696     110695.1688     110695.1669     110695.1662     110695.1674     110695.1690    
      110695.1689     110695.1676     110695.1661     110695.1657     110695.1660     110695.1662     110695.1661     110695.1658     110695.1656     110695.1657    
      110695.1660     110695.1664     110695.1667     110695.1670     110695.1672    
1
  CONCENTRATION IN LAYER   5 AT END OF TIME STEP   1 IN STRESS PERIOD    1
  ---------------------------------------------------------------------------

                1               2               3               4               5               6               7               8               9              10
               11              12              13              14              15              16              17              18              19              20
               21              22              23              24              25
 ................................................................................................................................................................
   1  110695.1670     110695.1627     110695.1663     110695.1688     110695.1699     110695.1689     110695.1667     110695.1660     110695.1674     110695.1693    
      110695.1692     110695.1676     110695.1659     110695.1655     110695.1658     110695.1662     110695.1660     110695.1656     110695.1654     110695.1655    
      110695.1659     110695.1663     110695.1666     110695.1670     110695.1672    
1
  CONCENTRATION IN LAYER   6 AT END OF TIME STEP   1 IN STRESS PERIOD    1
  ---------------------------------------------------------------------------

                1               2               3               4               5               6               7               8               9              10
               11              12              13              14              15              16              17              18              19              20
               21              22              23              24              25
 ................................................................................................................................................................
   1  110695.1670     110695.1654     110695.1670     110695.1689     110695.1700     110695.1689     110695.1667     110695.1659     110695.1674     110695.1694    
      110695.1693     110695.1677     110695.1659     110695.1654     110695.1658     110695.1662     110695.1660     110695.1656     110695.1654     110695.1655    
      110695.1658     110695.1662     110695.1666     110695.1670     110695.1672    
1
  CONCENTRATION IN LAYER   7 AT END OF TIME STEP   1 IN STRESS PERIOD    1
  ---------------------------------------------------------------------------

                1               2               3               4               5               6               7               8               9              10
               11              12              13              14              15              16              17              18              19              20
               21              22              23              24              25
 ................................................................................................................................................................
   1  110695.1670     110695.1665     110695.1673     110695.1689     110695.1698     110695.1688     110695.1666     110695.1660     110695.1674     110695.1693    
      110695.1692     110695.1677     110695.1660     110695.1655     110695.1659     110695.1662     110695.1661     110695.1657     110695.1654     110695.1656    
      110695.1659     110695.1662     110695.1666     110695.1670     110695.1672    
1
  CONCENTRATION IN LAYER   8 AT END OF TIME STEP   1 IN STRESS PERIOD    1
  ---------------------------------------------------------------------------

                1               2               3               4               5               6               7               8               9              10
               11              12              13              14              15              16              17              18              19              20
               21              22              23              24              25
 ................................................................................................................................................................
   1  110695.1670     110695.1670     110695.1675     110695.1688     110695.1696     110695.1686     110695.1667     110695.1661     110695.1674     110695.1691    
      110695.1690     110695.1676     110695.1661     110695.1657     110695.1660     110695.1663     110695.1662     110695.1658     110695.1656     110695.1657    
      110695.1660     110695.1663     110695.1666     110695.1670     110695.1672    
1
  CONCENTRATION IN LAYER   9 AT END OF TIME STEP   1 IN STRESS PERIOD    1
  ---------------------------------------------------------------------------

                1               2               3               4               5               6               7               8               9              10
               11              12              13              14              15              16              17              18              19              20
               21              22              23              24              25
 ................................................................................................................................................................
   1  110695.1670     110695.1671     110695.1675     110695.1685     110695.1691     110695.1683     110695.1668     110695.1663     110695.1674     110695.1687    
      110695.1687     110695.1676     110695.1663     110695.1660     110695.1662     110695.1665     110695.1663     110695.1661     110695.1659     110695.1660    
      110695.1662     110695.1665     110695.1667     110695.1670     110695.1672    
1
  CONCENTRATION IN LAYER  10 AT END OF TIME STEP   1 IN STRESS PERIOD    1
  ---------------------------------------------------------------------------

                1               2               3               4               5               6               7               8               9              10
               11              12              13              14              15              16              17              18              19              20
               21              22              23              24              25
 ................................................................................................................................................................
   1  110695.1670     110695.1671     110695.1674     110695.1680     110695.1683     110695.1679     110695.1670     110695.1667     110695.1673     110695.1681    
      110695.1681     110695.1674     110695.1667     110695.1664     110695.1666     110695.1667     110695.1667     110695.1665     110695.1664     110695.1665    
      110695.1666     110695.1667     110695.1669     110695.1671     110695.1672    

 CONCENTRATION WILL BE SAVED ON UNIT 6543 AT END OF TIME STEP    1, STRESS PERIOD    1


  MASS BUDGET FOR ENTIRE MODEL AT END OF TIME STEP    1, STRESS PERIOD   1
  ---------------------------------------------------------------------------------------------------

     CUMULATIVE MASS      M       RATES FOR THIS TIME STEP      M/T          PACKAGE NAME    
     ------------------                 ------------------------                     ----------------

           IN:                                      IN:
           ---                                      ---
     STORAGE-AQUEOUS =           1.3066       STORAGE-AQUEOUS =           0.1307     MST                              
                 CHD =       69182.9836                   CHD =        6918.2984     SSM_CHD                          
                 CNC =      161430.8298                   CNC =       16143.0830     CNC                              

            TOTAL IN =      230615.1200              TOTAL IN =       23061.5120

          OUT:                                     OUT:
          ----                                     ----
     STORAGE-AQUEOUS =           0.1116       STORAGE-AQUEOUS =       1.1161E-02     MST                              
                 CHD =      230615.0083                   CHD =       23061.5008     SSM_CHD                          
                 CNC =           0.0000                   CNC =           0.0000     CNC                              

           TOTAL OUT =      230615.1200             TOTAL OUT =       23061.5120

            IN - OUT =       1.1642E-10              IN - OUT =       1.4552E-11

 PERCENT DISCREPANCY =           0.00     PERCENT DISCREPANCY =           0.00




         TIME SUMMARY AT END OF TIME STEP    1 IN STRESS PERIOD    1
                    SECONDS     MINUTES      HOURS       DAYS        YEARS
                    -----------------------------------------------------------
   TIME STEP LENGTH 8.64000E+05  14400.      240.00      10.000     2.73785E-02
 STRESS PERIOD TIME 8.64000E+05  14400.      240.00      10.000     2.73785E-02
         TOTAL TIME 8.64000E+05  14400.      240.00      10.000     2.73785E-02


end timestep


start timestep kper="1" kstp="2" mode="normal"

 UBDSV06 SAVING  SOURCE-SINK MIX IN MODEL H                PACKAGE H               CONNECTED TO MODEL H                PACKAGE SSM              ON UNIT   6542 AT TIME STEP      2, STRESS PERIOD      1
 UBDSV06 SAVING              CNC IN MODEL H                PACKAGE H               CONNECTED TO MODEL H                PACKAGE CNC              ON UNIT   6542 AT TIME STEP      2, STRESS PERIOD      1

 SSM PACKAGE (SSM) FLOW RATES   PERIOD      1   STEP        2
 ------------------------------------------------------------------------------------------------
   NUMBER   CELLID                   BOUND Q        SSM CONC          RATE         PACKAGE NAME  
 ------------------------------------------------------------------------------------------------
     1      (1,1,1)               2.08333319E-02  110692.76       2306.0990            CHD       
     2      (2,1,1)               2.08333319E-02  110692.76       2306.0990            CHD       
     3      (3,1,1)               2.08333319E-02  110692.76       2306.0990            CHD       
     4      (4,1,1)               0.0000000       0.0000000       0.0000000            CHD       
     5      (5,1,1)               0.0000000       0.0000000       0.0000000            CHD       
     6      (6,1,1)               0.0000000       0.0000000       0.0000000            CHD       
     7      (7,1,1)               0.0000000       0.0000000       0.0000000            CHD       
     8      (8,1,1)               0.0000000       0.0000000       0.0000000            CHD       
     9      (9,1,1)               0.0000000       0.0000000       0.0000000            CHD       
     10     (10,1,1)              0.0000000       0.0000000       0.0000000            CHD       
     11     (1,1,25)             -2.08333370E-02  110695.17      -2306.1497            CHD       
     12     (2,1,25)             -2.08333370E-02  110695.17      -2306.1497            CHD       
     13     (3,1,25)             -2.08333370E-02  110695.17      -2306.1497            CHD       
     14     (4,1,25)             -2.08333370E-02  110695.17      -2306.1497            CHD       
     15     (5,1,25)             -2.08333370E-02  110695.17      -2306.1497            CHD       
     16     (6,1,25)             -2.08333370E-02  110695.17      -2306.1497            CHD       
     17     (7,1,25)             -2.08333370E-02  110695.17      -2306.1497            CHD       
     18     (8,1,25)             -2.08333370E-02  110695.17      -2306.1497            CHD       
     19     (9,1,25)             -2.08333370E-02  110695.17      -2306.1497            CHD       
     20     (10,1,25)            -2.08333370E-02  110695.17      -2306.1497            CHD       
 ------------------------------------------------------------------------------------------------




 CNC PACKAGE (CNC) FLOW RATES   PERIOD      1   STEP        2
 -----------------------------------------------
   NUMBER   CELLID                    RATE      
 -----------------------------------------------
     1      (4,1,1)               2306.3134     
     2      (5,1,1)               2306.1500     
     3      (6,1,1)               2306.1495     
     4      (7,1,1)               2306.1493     
     5      (8,1,1)               2306.1492     
     6      (9,1,1)               2306.1492     
     7      (10,1,1)              2306.1492     
 -----------------------------------------------



1
  CONCENTRATION IN LAYER   1 AT END OF TIME STEP   2 IN STRESS PERIOD    1
  ---------------------------------------------------------------------------

                1               2               3               4               5               6               7               8               9              10
               11              12              13              14              15              16              17              18              19              20
               21              22              23              24              25
 ................................................................................................................................................................
   1  110693.7395     110694.7245     110695.0983     110695.1591     110695.1667     110695.1676     110695.1677     110695.1675     110695.1675     110695.1676    
      110695.1675     110695.1672     110695.1669     110695.1667     110695.1666     110695.1665     110695.1664     110695.1663     110695.1663     110695.1664    
      110695.1665     110695.1667     110695.1668     110695.1671     110695.1672    
1
  CONCENTRATION IN LAYER   2 AT END OF TIME STEP   2 IN STRESS PERIOD    1
  ---------------------------------------------------------------------------

                1               2               3               4               5               6               7               8               9              10
               11              12              13              14              15              16              17              18              19              20
               21              22              23              24              25
 ................................................................................................................................................................
   1  110693.9363     110694.7847     110695.1054     110695.1598     110695.1668     110695.1677     110695.1680     110695.1679     110695.1677     110695.1676    
      110695.1673     110695.1671     110695.1668     110695.1666     110695.1664     110695.1662     110695.1661     110695.1661     110695.1661     110695.1662    
      110695.1663     110695.1665     110695.1667     110695.1670     110695.1671    
1
  CONCENTRATION IN LAYER   3 AT END OF TIME STEP   2 IN STRESS PERIOD    1
  ---------------------------------------------------------------------------

                1               2               3               4               5               6               7               8               9              10
               11              12              13              14              15              16              17              18              19              20
               21              22              23              24              25
 ................................................................................................................................................................
   1  110694.3868     110694.8986     110695.1174     110695.1610     110695.1668     110695.1679     110695.1684     110695.1684     110695.1681     110695.1676    
      110695.1671     110695.1669     110695.1667     110695.1664     110695.1661     110695.1658     110695.1656     110695.1656     110695.1657     110695.1658    
      110695.1660     110695.1663     110695.1666     110695.1670     110695.1671    
1
  CONCENTRATION IN LAYER   4 AT END OF TIME STEP   2 IN STRESS PERIOD    1
  ---------------------------------------------------------------------------

                1               2               3               4               5               6               7               8               9              10
               11              12              13              14              15              16              17              18              19              20
               21              22              23              24              25
 ................................................................................................................................................................
   1  110695.1670     110695.0358     110695.1301     110695.1624     110695.1670     110695.1681     110695.1688     110695.1689     110695.1684     110695.1676    
      110695.1670     110695.1668     110695.1666     110695.1663     110695.1659     110695.1654     110695.1652     110695.1652     110695.1653     110695.1655    
      110695.1657     110695.1660     110695.1664     110695.1669     110695.1671    
1
  CONCENTRATION IN LAYER   5 AT END OF TIME STEP   2 IN STRESS PERIOD    1
  ---------------------------------------------------------------------------

                1               2               3               4               5               6               7               8               9              10
               11              12              13              14              15              16              17              18              19              20
               21              22              23              24              25
 ................................................................................................................................................................
   1  110695.1670     110695.1049     110695.1435     110695.1639     110695.1671     110695.1682     110695.1690     110695.1691     110695.1685     110695.1676    
      110695.1669     110695.1668     110695.1666     110695.1663     110695.1657     110695.1652     110695.1650     110695.1650     110695.1651     110695.1653    
      110695.1655     110695.1659     110695.1663     110695.1669     110695.1671    
1
  CONCENTRATION IN LAYER   6 AT END OF TIME STEP   2 IN STRESS PERIOD    1
  ---------------------------------------------------------------------------

                1               2               3               4               5               6               7               8               9              10
               11              12              13              14              15              16              17              18              19              20
               21              22              23              24              25
 ................................................................................................................................................................
   1  110695.1670     110695.1384     110695.1532     110695.1651     110695.1673     110695.1683     110695.1690     110695.1692     110695.1685     110695.1677    
      110695.1669     110695.1668     110695.1666     110695.1663     110695.1657     110695.1652     110695.1649     110695.1649     110695.1650     110695.1652    
      110695.1655     110695.1658     110695.1662     110695.1668     110695.1671    
1
  CONCENTRATION IN LAYER   7 AT END OF TIME STEP   2 IN STRESS PERIOD    1
  ---------------------------------------------------------------------------

                1               2               3               4               5               6               7               8               9              10
               11              12              13              14              15              16              17              18              19              20
               21              22              23              24              25
 ................................................................................................................................................................
   1  110695.1670     110695.1543     110695.1592     110695.1660     110695.1674     110695.1683     110695.1690     110695.1691     110695.1685     110695.1677    
      110695.1670     110695.1668     110695.1666     110695.1663     110695.1658     110695.1653     110695.1650     110695.1650     110695.1651     110695.1653    
      110695.1655     110695.1659     110695.1662     110695.1668     110695.1671    
1
  CONCENTRATION IN LAYER   8 AT END OF TIME STEP   2 IN STRESS PERIOD    1
  ---------------------------------------------------------------------------

                1               2               3               4               5               6               7               8               9              10
               11              12              13              14              15              16              17              18              19              20
               21              22              23              24              25
 ................................................................................................................................................................
   1  110695.1670     110695.1616     110695.1627     110695.1666     110695.1675     110695.1682     110695.1688     110695.1689     110695.1684     110695.1676    
      110695.1670     110695.1669     110695.1667     110695.1664     110695.1659     110695.1655     110695.1652     110695.1652     110695.1653     110695.1654    
      110695.1656     110695.1660     110695.1663     110695.1669     110695.1671    
1
  CONCENTRATION IN LAYER   9 AT END OF TIME STEP   2 IN STRESS PERIOD    1
  ---------------------------------------------------------------------------

                1               2               3               4               5               6               7               8               9              10
               11              12              13              14              15              16              17              18              19              20
               21              22              23              24              25
 ................................................................................................................................................................
   1  110695.1670     110695.1646     110695.1646     110695.1669     110695.1676     110695.1681     110695.1685     110695.1685     110695.1682     110695.1676    
      110695.1671     110695.1670     110695.1668     110695.1665     110695.1661     110695.1657     110695.1655     110695.1655     110695.1655     110695.1657    
      110695.1659     110695.1661     110695.1664     110695.1669     110695.1671    
1
  CONCENTRATION IN LAYER  10 AT END OF TIME STEP   2 IN STRESS PERIOD    1
  ---------------------------------------------------------------------------

                1               2               3               4               5               6               7               8               9              10
               11              12              13              14              15              16              17              18              19              20
               21              22              23              24              25
 ................................................................................................................................................................
   1  110695.1670     110695.1657     110695.1655     110695.1671     110695.1677     110695.1680     110695.1680     110695.1678     110695.1678     110695.1678    
      110695.1675     110695.1672     110695.1668     110695.1665     110695.1663     110695.1661     110695.1660     110695.1659     110695.1659     110695.1660    
      110695.1661     110695.1664     110695.1666     110695.1669     110695.1671    

 CONCENTRATION WILL BE SAVED ON UNIT 6543 AT END OF TIME STEP    2, STRESS PERIOD    1


  MASS BUDGET FOR ENTIRE MODEL AT END OF TIME STEP    2, STRESS PERIOD   1
  ---------------------------------------------------------------------------------------------------

     CUMULATIVE MASS      M       RATES FOR THIS TIME STEP      M/T          PACKAGE NAME    
     ------------------                 ------------------------                     ----------------

           IN:                                      IN:
           ---                                      ---
     STORAGE-AQUEOUS =           2.4295       STORAGE-AQUEOUS =           0.1123     MST                              
                 CHD =      138365.9532                   CHD =        6918.2970     SSM_CHD                          
                 CNC =      322862.9273                   CNC =       16143.2098     CNC                              

            TOTAL IN =      461231.3101              TOTAL IN =       23061.6190

          OUT:                                     OUT:
          ----                                     ----
     STORAGE-AQUEOUS =           1.3295       STORAGE-AQUEOUS =           0.1218     MST                              
                 CHD =      461229.9806                   CHD =       23061.4972     SSM_CHD                          
                 CNC =           0.0000                   CNC =           0.0000     CNC                              

           TOTAL OUT =      461231.3101             TOTAL OUT =       23061.6190

            IN - OUT =       2.9104E-09              IN - OUT =       2.8012E-10

 PERCENT DISCREPANCY =           0.00     PERCENT DISCREPANCY =           0.00




         TIME SUMMARY AT END OF TIME STEP    2 IN STRESS PERIOD    1
                    SECONDS     MINUTES      HOURS       DAYS        YEARS
                    -----------------------------------------------------------
   TIME STEP LENGTH 8.64000E+05  14400.      240.00      10.000     2.73785E-02
 STRESS PERIOD TIME 1.72800E+06  28800.      480.00      20.000     5.47570E-02
         TOTAL TIME 1.72800E+06  28800.      480.00      20.000     5.47570E-02


end timestep


start timestep kper="1" kstp="3" mode="normal"

 UBDSV06 SAVING  SOURCE-SINK MIX IN MODEL H                PACKAGE H               CONNECTED TO MODEL H                PACKAGE SSM              ON UNIT   6542 AT TIME STEP      3, STRESS PERIOD      1
 UBDSV06 SAVING              CNC IN MODEL H                PACKAGE H               CONNECTED TO MODEL H                PACKAGE CNC              ON UNIT   6542 AT TIME STEP      3, STRESS PERIOD      1

 SSM PACKAGE (SSM) FLOW RATES   PERIOD      1   STEP        3
 ------------------------------------------------------------------------------------------------
   NUMBER   CELLID                   BOUND Q        SSM CONC          RATE         PACKAGE NAME  
 ------------------------------------------------------------------------------------------------
     1      (1,1,1)               2.08333325E-02  110692.76       2306.0991            CHD       
     2      (2,1,1)               2.08333325E-02  110692.76       2306.0991            CHD       
     3      (3,1,1)               2.08333325E-02  110692.76       2306.0991            CHD       
     4      (4,1,1)               0.0000000       0.0000000       0.0000000            CHD       
     5      (5,1,1)               0.0000000       0.0000000       0.0000000            CHD       
     6      (6,1,1)               0.0000000       0.0000000       0.0000000            CHD       
     7      (7,1,1)               0.0000000       0.0000000       0.0000000            CHD       
     8      (8,1,1)               0.0000000       0.0000000       0.0000000            CHD       
     9      (9,1,1)               0.0000000       0.0000000       0.0000000            CHD       
     10     (10,1,1)              0.0000000       0.0000000       0.0000000            CHD       
     11     (1,1,25)             -2.08333362E-02  110695.17      -2306.1496            CHD       
     12     (2,1,25)             -2.08333362E-02  110695.17      -2306.1496            CHD       
     13     (3,1,25)             -2.08333362E-02  110695.17      -2306.1496            CHD       
     14     (4,1,25)             -2.08333362E-02  110695.17      -2306.1496            CHD       
     15     (5,1,25)             -2.08333362E-02  110695.17      -2306.1496            CHD       
     16     (6,1,25)             -2.08333362E-02  110695.17      -2306.1496            CHD       
     17     (7,1,25)             -2.08333362E-02  110695.17      -2306.1496            CHD       
     18     (8,1,25)             -2.08333362E-02  110695.17      -2306.1496            CHD       
     19     (9,1,25)             -2.08333362E-02  110695.17      -2306.1496            CHD       
     20     (10,1,25)            -2.08333362E-02  110695.17      -2306.1496            CHD       
 ------------------------------------------------------------------------------------------------




 CNC PACKAGE (CNC) FLOW RATES   PERIOD      1   STEP        3
 -----------------------------------------------
   NUMBER   CELLID                    RATE      
 -----------------------------------------------
     1      (4,1,1)               2306.3960     
     2      (5,1,1)               2306.1511     
     3      (6,1,1)               2306.1502     
     4      (7,1,1)               2306.1497     
     5      (8,1,1)               2306.1494     
     6      (9,1,1)               2306.1493     
     7      (10,1,1)              2306.1493     
 -----------------------------------------------



1
  CONCENTRATION IN LAYER   1 AT END OF TIME STEP   3 IN STRESS PERIOD    1
  ---------------------------------------------------------------------------

                1               2               3               4               5               6               7               8               9              10
               11              12              13              14              15              16              17              18              19              20
               21              22              23              24              25
 ................................................................................................................................................................
   1  110692.9331     110694.2726     110695.0357     110695.1530     110695.1661     110695.1677     110695.1679     110695.1678     110695.1677     110695.1676    
      110695.1674     110695.1672     110695.1668     110695.1665     110695.1663     110695.1661     110695.1660     110695.1660     110695.1660     110695.1660    
      110695.1662     110695.1664     110695.1667     110695.1670     110695.1671    
1
  CONCENTRATION IN LAYER   2 AT END OF TIME STEP   3 IN STRESS PERIOD    1
  ---------------------------------------------------------------------------

                1               2               3               4               5               6               7               8               9              10
               11              12              13              14              15              16              17              18              19              20
               21              22              23              24              25
 ................................................................................................................................................................
   1  110693.2709     110694.3944     110695.0470     110695.1537     110695.1662     110695.1679     110695.1681     110695.1679     110695.1677     110695.1676    
      110695.1674     110695.1671     110695.1667     110695.1663     110695.1661     110695.1659     110695.1658     110695.1657     110695.1657     110695.1658    
      110695.1660     110695.1663     110695.1666     110695.1669     110695.1671    
1
  CONCENTRATION IN LAYER   3 AT END OF TIME STEP   3 IN STRESS PERIOD    1
  ---------------------------------------------------------------------------

                1               2               3               4               5               6               7               8               9              10
               11              12              13              14              15              16              17              18              19              20
               21              22              23              24              25
 ................................................................................................................................................................
   1  110694.0005     110694.6177     110695.0658     110695.1549     110695.1665     110695.1682     110695.1684     110695.1681     110695.1678     110695.1676    
      110695.1673     110695.1670     110695.1665     110695.1661     110695.1657     110695.1655     110695.1654     110695.1653     110695.1654     110695.1655    
      110695.1657     110695.1660     110695.1664     110695.1669     110695.1671    
1
  CONCENTRATION IN LAYER   4 AT END OF TIME STEP   3 IN STRESS PERIOD    1
  ---------------------------------------------------------------------------

                1               2               3               4               5               6               7               8               9              10
               11              12              13              14              15              16              17              18              19              20
               21              22              23              24              25
 ................................................................................................................................................................
   1  110695.1670     110694.8770     110695.0857     110695.1563     110695.1667     110695.1684     110695.1686     110695.1683     110695.1679     110695.1676    
      110695.1673     110695.1669     110695.1664     110695.1659     110695.1655     110695.1652     110695.1650     110695.1650     110695.1650     110695.1652    
      110695.1654     110695.1658     110695.1663     110695.1668     110695.1671    
1
  CONCENTRATION IN LAYER   5 AT END OF TIME STEP   3 IN STRESS PERIOD    1
  ---------------------------------------------------------------------------

                1               2               3               4               5               6               7               8               9              10
               11              12              13              14              15              16              17              18              19              20
               21              22              23              24              25
 ................................................................................................................................................................
   1  110695.1670     110695.0195     110695.1105     110695.1583     110695.1670     110695.1686     110695.1687     110695.1684     110695.1680     110695.1677    
      110695.1673     110695.1669     110695.1664     110695.1658     110695.1653     110695.1650     110695.1648     110695.1647     110695.1648     110695.1649    
      110695.1652     110695.1657     110695.1661     110695.1668     110695.1671    
1
  CONCENTRATION IN LAYER   6 AT END OF TIME STEP   3 IN STRESS PERIOD    1
  ---------------------------------------------------------------------------

                1               2               3               4               5               6               7               8               9              10
               11              12              13              14              15              16              17              18              19              20
               21              22              23              24              25
 ................................................................................................................................................................
   1  110695.1670     110695.0944     110695.1308     110695.1605     110695.1672     110695.1687     110695.1688     110695.1685     110695.1681     110695.1677    
      110695.1673     110695.1669     110695.1664     110695.1657     110695.1652     110695.1649     110695.1647     110695.1647     110695.1647     110695.1649    
      110695.1652     110695.1656     110695.1661     110695.1667     110695.1671    
1
  CONCENTRATION IN LAYER   7 AT END OF TIME STEP   3 IN STRESS PERIOD    1
  ---------------------------------------------------------------------------

                1               2               3               4               5               6               7               8               9              10
               11              12              13              14              15              16              17              18              19              20
               21              22              23              24              25
 ................................................................................................................................................................
   1  110695.1670     110695.1326     110695.1445     110695.1624     110695.1674     110695.1687     110695.1687     110695.1684     110695.1680     110695.1677    
      110695.1674     110695.1670     110695.1664     110695.1658     110695.1653     110695.1650     110695.1648     110695.1647     110695.1647     110695.1649    
      110695.1652     110695.1656     110695.1661     110695.1667     110695.1671    
1
  CONCENTRATION IN LAYER   8 AT END OF TIME STEP   3 IN STRESS PERIOD    1
  ---------------------------------------------------------------------------

                1               2               3               4               5               6               7               8               9              10
               11              12              13              14              15              16              17              18              19              20
               21              22              23              24              25
 ................................................................................................................................................................
   1  110695.1670     110695.1513     110695.1533     110695.1638     110695.1676     110695.1686     110695.1686     110695.1683     110695.1680     110695.1677    
      110695.1674     110695.1670     110695.1665     110695.1659     110695.1654     110695.1651     110695.1650     110695.1649     110695.1649     110695.1651    
      110695.1653     110695.1657     110695.1661     110695.1667     110695.1671    
1
  CONCENTRATION IN LAYER   9 AT END OF TIME STEP   3 IN STRESS PERIOD    1
  ---------------------------------------------------------------------------

                1               2               3               4               5               6               7               8               9              10
               11              12              13              14              15              16              17              18              19              20
               21              22              23              24              25
 ................................................................................................................................................................
   1  110695.1670     110695.1598     110695.1583     110695.1648     110695.1676     110695.1684     110695.1684     110695.1682     110695.1679     110695.1677    
      110695.1674     110695.1671     110695.1665     110695.1660     110695.1656     110695.1654     110695.1652     110695.1652     110695.1652     110695.1653    
      110695.1655     110695.1659     110695.1663     110695.1668     110695.1671    
1
  CONCENTRATION IN LAYER  10 AT END OF TIME STEP   3 IN STRESS PERIOD    1
  ---------------------------------------------------------------------------

                1               2               3               4               5               6               7               8               9              10
               11              12              13              14              15              16              17              18              19              20
               21              22              23              24              25
 ................................................................................................................................................................
   1  110695.1670     110695.1630     110695.1606     110695.1652     110695.1675     110695.1683     110695.1682     110695.1680     110695.1679     110695.1677    
      110695.1675     110695.1671     110695.1667     110695.1662     110695.1659     110695.1657     110695.1655     110695.1655     110695.1655     110695.1656    
      110695.1658     110695.1660     110695.1664     110695.1668     110695.1671    

 CONCENTRATION WILL BE SAVED ON UNIT 6543 AT END OF TIME STEP    3, STRESS PERIOD    1


  MASS BUDGET FOR ENTIRE MODEL AT END OF TIME STEP    3, STRESS PERIOD   1
  ---------------------------------------------------------------------------------------------------

     CUMULATIVE MASS      M       RATES FOR THIS TIME STEP      M/T          PACKAGE NAME    
     ------------------                 ------------------------                     ----------------

           IN:                                      IN:
           ---                                      ---
     STORAGE-AQUEOUS =           3.9109       STORAGE-AQUEOUS =           0.1481     MST                              
                 CHD =      207548.9249                   CHD =        6918.2972     SSM_CHD                          
                 CNC =      484295.8776                   CNC =       16143.2950     CNC                              

            TOTAL IN =      691848.7133              TOTAL IN =       23061.7403

          OUT:                                     OUT:
          ----                                     ----
     STORAGE-AQUEOUS =           3.7694       STORAGE-AQUEOUS =           0.2440     MST                              
                 CHD =      691844.9440                   CHD =       23061.4963     SSM_CHD                          
                 CNC =           0.0000                   CNC =           0.0000     CNC                              

           TOTAL OUT =      691848.7133             TOTAL OUT =       23061.7403

            IN - OUT =       5.8208E-09              IN - OUT =       2.9831E-10

 PERCENT DISCREPANCY =           0.00     PERCENT DISCREPANCY =           0.00




         TIME SUMMARY AT END OF TIME STEP    3 IN STRESS PERIOD    1
                    SECONDS     MINUTES      HOURS       DAYS        YEARS
                    -----------------------------------------------------------
   TIME STEP LENGTH 8.64000E+05  14400.      240.00      10.000     2.73785E-02
 STRESS PERIOD TIME 2.59200E+06  43200.      720.00      30.000     8.21355E-02
         TOTAL TIME 2.59200E+06  43200.      720.00      30.000     8.21355E-02


end timestep


start timestep kper="1" kstp="4" mode="normal"

 UBDSV06 SAVING  SOURCE-SINK MIX IN MODEL H                PACKAGE H               CONNECTED TO MODEL H                PACKAGE SSM              ON UNIT   6542 AT TIME STEP      4, STRESS PERIOD      1
 UBDSV06 SAVING              CNC IN MODEL H                PACKAGE H               CONNECTED TO MODEL H                PACKAGE CNC              ON UNIT   6542 AT TIME STEP      4, STRESS PERIOD      1

 SSM PACKAGE (SSM) FLOW RATES   PERIOD      1   STEP        4
 ------------------------------------------------------------------------------------------------
   NUMBER   CELLID                   BOUND Q        SSM CONC          RATE         PACKAGE NAME  
 ------------------------------------------------------------------------------------------------
     1      (1,1,1)               2.08333321E-02  110692.76       2306.0990            CHD       
     2      (2,1,1)               2.08333321E-02  110692.76       2306.0990            CHD       
     3      (3,1,1)               2.08333321E-02  110692.76       2306.0990            CHD       
     4      (4,1,1)               0.0000000       0.0000000       0.0000000            CHD       
     5      (5,1,1)               0.0000000       0.0000000       0.0000000            CHD       
     6      (6,1,1)               0.0000000       0.0000000       0.0000000            CHD       
     7      (7,1,1)               0.0000000       0.0000000       0.0000000            CHD       
     8      (8,1,1)               0.0000000       0.0000000       0.0000000            CHD       
     9      (9,1,1)               0.0000000       0.0000000       0.0000000            CHD       
     10     (10,1,1)              0.0000000       0.0000000       0.0000000            CHD       
     11     (1,1,25)             -2.08333356E-02  110695.17      -2306.1496            CHD       
     12     (2,1,25)             -2.08333356E-02  110695.17      -2306.1496            CHD       
     13     (3,1,25)             -2.08333356E-02  110695.17      -2306.1496            CHD       
     14     (4,1,25)             -2.08333356E-02  110695.17      -2306.1496            CHD       
     15     (5,1,25)             -2.08333356E-02  110695.17      -2306.1496            CHD       
     16     (6,1,25)             -2.08333356E-02  110695.17      -2306.1496            CHD       
     17     (7,1,25)             -2.08333356E-02  110695.17      -2306.1496            CHD       
     18     (8,1,25)             -2.08333356E-02  110695.17      -2306.1496            CHD       
     19     (9,1,25)             -2.08333356E-02  110695.17      -2306.1496            CHD       
     20     (10,1,25)            -2.08333356E-02  110695.17      -2306.1496            CHD       
 ------------------------------------------------------------------------------------------------




 CNC PACKAGE (CNC) FLOW RATES   PERIOD      1   STEP        4
 -----------------------------------------------
   NUMBER   CELLID                    RATE      
 -----------------------------------------------
     1      (4,1,1)               2306.5042     
     2      (5,1,1)               2306.1526     
     3      (6,1,1)               2306.1510     
     4      (7,1,1)               2306.1501     
     5      (8,1,1)               2306.1496     
     6      (9,1,1)               2306.1494     
     7      (10,1,1)              2306.1493     
 -----------------------------------------------



1
  CONCENTRATION IN LAYER   1 AT END OF TIME STEP   4 IN STRESS PERIOD    1
  ---------------------------------------------------------------------------

                1               2               3               4               5               6               7               8               9              10
               11              12              13              14              15              16              17              18              19              20
               21              22              23              24              25
 ................................................................................................................................................................
   1  110690.6625     110693.5898     110694.9478     110695.1444     110695.1653     110695.1677     110695.1680     110695.1679     110695.1678     110695.1676    
      110695.1674     110695.1671     110695.1667     110695.1663     110695.1661     110695.1659     110695.1657     110695.1656     110695.1657     110695.1657    
      110695.1659     110695.1662     110695.1665     110695.1668     110695.1671    
1
  CONCENTRATION IN LAYER   2 AT END OF TIME STEP   4 IN STRESS PERIOD    1
  ---------------------------------------------------------------------------

                1               2               3               4               5               6               7               8               9              10
               11              12              13              14              15              16              17              18              19              20
               21              22              23              24              25
 ................................................................................................................................................................
   1  110692.1209     110693.8524     110694.9681     110695.1455     110695.1653     110695.1678     110695.1681     110695.1680     110695.1678     110695.1676    
      110695.1673     110695.1670     110695.1666     110695.1662     110695.1659     110695.1657     110695.1655     110695.1654     110695.1654     110695.1656    
      110695.1658     110695.1661     110695.1664     110695.1668     110695.1671    
1
  CONCENTRATION IN LAYER   3 AT END OF TIME STEP   4 IN STRESS PERIOD    1
  ---------------------------------------------------------------------------

                1               2               3               4               5               6               7               8               9              10
               11              12              13              14              15              16              17              18              19              20
               21              22              23              24              25
 ................................................................................................................................................................
   1  110693.4945     110694.2457     110695.0000     110695.1470     110695.1654     110695.1679     110695.1682     110695.1682     110695.1679     110695.1676    
      110695.1672     110695.1668     110695.1664     110695.1660     110695.1656     110695.1653     110695.1651     110695.1651     110695.1651     110695.1653    
      110695.1655     110695.1659     110695.1663     110695.1668     110695.1671    
1
  CONCENTRATION IN LAYER   4 AT END OF TIME STEP   4 IN STRESS PERIOD    1
  ---------------------------------------------------------------------------

                1               2               3               4               5               6               7               8               9              10
               11              12              13              14              15              16              17              18              19              20
               21              22              23              24              25
 ................................................................................................................................................................
   1  110695.1670     110694.6648     110695.0285     110695.1482     110695.1656     110695.1680     110695.1684     110695.1683     110695.1681     110695.1676    
      110695.1671     110695.1667     110695.1663     110695.1658     110695.1654     110695.1650     110695.1648     110695.1647     110695.1648     110695.1650    
      110695.1653     110695.1657     110695.1661     110695.1667     110695.1670    
1
  CONCENTRATION IN LAYER   5 AT END OF TIME STEP   4 IN STRESS PERIOD    1
  ---------------------------------------------------------------------------

                1               2               3               4               5               6               7               8               9              10
               11              12              13              14              15              16              17              18              19              20
               21              22              23              24              25
 ................................................................................................................................................................
   1  110695.1670     110694.9013     110695.0662     110695.1505     110695.1658     110695.1682     110695.1685     110695.1685     110695.1681     110695.1677    
      110695.1671     110695.1667     110695.1662     110695.1657     110695.1652     110695.1648     110695.1646     110695.1645     110695.1646     110695.1648    
      110695.1651     110695.1655     110695.1660     110695.1667     110695.1670    
1
  CONCENTRATION IN LAYER   6 AT END OF TIME STEP   4 IN STRESS PERIOD    1
  ---------------------------------------------------------------------------

                1               2               3               4               5               6               7               8               9              10
               11              12              13              14              15              16              17              18              19              20
               21              22              23              24              25
 ................................................................................................................................................................
   1  110695.1670     110695.0301     110695.0993     110695.1536     110695.1660     110695.1682     110695.1686     110695.1685     110695.1682     110695.1677    
      110695.1671     110695.1667     110695.1662     110695.1656     110695.1651     110695.1648     110695.1645     110695.1644     110695.1645     110695.1647    
      110695.1650     110695.1655     110695.1660     110695.1666     110695.1670    
1
  CONCENTRATION IN LAYER   7 AT END OF TIME STEP   4 IN STRESS PERIOD    1
  ---------------------------------------------------------------------------

                1               2               3               4               5               6               7               8               9              10
               11              12              13              14              15              16              17              18              19              20
               21              22              23              24              25
 ................................................................................................................................................................
   1  110695.1670     110695.0984     110695.1233     110695.1566     110695.1663     110695.1683     110695.1685     110695.1685     110695.1682     110695.1677    
      110695.1672     110695.1667     110695.1662     110695.1657     110695.1652     110695.1648     110695.1646     110695.1645     110695.1645     110695.1647    
      110695.1650     110695.1655     110695.1660     110695.1666     110695.1670    
1
  CONCENTRATION IN LAYER   8 AT END OF TIME STEP   4 IN STRESS PERIOD    1
  ---------------------------------------------------------------------------

                1               2               3               4               5               6               7               8               9              10
               11              12              13              14              15              16              17              18              19              20
               21              22              23              24              25
 ................................................................................................................................................................
   1  110695.1670     110695.1332     110695.1393     110695.1592     110695.1666     110695.1682     110695.1685     110695.1684     110695.1681     110695.1677    
      110695.1672     110695.1668     110695.1663     110695.1658     110695.1653     110695.1650     110695.1647     110695.1646     110695.1647     110695.1648    
      110695.1651     110695.1655     110695.1660     110695.1666     110695.1670    
1
  CONCENTRATION IN LAYER   9 AT END OF TIME STEP   4 IN STRESS PERIOD    1
  ---------------------------------------------------------------------------

                1               2               3               4               5               6               7               8               9              10
               11              12              13              14              15              16              17              18              19              20
               21              22              23              24              25
 ................................................................................................................................................................
   1  110695.1670     110695.1500     110695.1488     110695.1609     110695.1667     110695.1682     110695.1684     110695.1683     110695.1681     110695.1677    
      110695.1673     110695.1669     110695.1664     110695.1659     110695.1655     110695.1652     110695.1649     110695.1648     110695.1649     110695.1650    
      110695.1653     110695.1657     110695.1661     110695.1666     110695.1670    
1
  CONCENTRATION IN LAYER  10 AT END OF TIME STEP   4 IN STRESS PERIOD    1
  ---------------------------------------------------------------------------

                1               2               3               4               5               6               7               8               9              10
               11              12              13              14              15              16              17              18              19              20
               21              22              23              24              25
 ................................................................................................................................................................
   1  110695.1670     110695.1566     110695.1532     110695.1617     110695.1668     110695.1682     110695.1683     110695.1682     110695.1680     110695.1677    
      110695.1674     110695.1670     110695.1665     110695.1661     110695.1657     110695.1654     110695.1652     110695.1651     110695.1651     110695.1652    
      110695.1655     110695.1658     110695.1662     110695.1667     110695.1670    

 CONCENTRATION WILL BE SAVED ON UNIT 6543 AT END OF TIME STEP    4, STRESS PERIOD    1


  MASS BUDGET FOR ENTIRE MODEL AT END OF TIME STEP    4, STRESS PERIOD   1
  ---------------------------------------------------------------------------------------------------

     CUMULATIVE MASS      M       RATES FOR THIS TIME STEP      M/T          PACKAGE NAME    
     ------------------                 ------------------------                     ----------------

           IN:                                      IN:
           ---                                      ---
     STORAGE-AQUEOUS =           6.4438       STORAGE-AQUEOUS =           0.2533     MST                              
                 CHD =      276731.8953                   CHD =        6918.2970     SSM_CHD                          
                 CNC =      645729.9392                   CNC =       16143.4062     CNC                              

            TOTAL IN =      922468.2783              TOTAL IN =       23061.9565

          OUT:                                     OUT:
          ----                                     ----
     STORAGE-AQUEOUS =           8.3776       STORAGE-AQUEOUS =           0.4608     MST                              
                 CHD =      922459.9007                   CHD =       23061.4957     SSM_CHD                          
                 CNC =           0.0000                   CNC =           0.0000     CNC                              

           TOTAL OUT =      922468.2783             TOTAL OUT =       23061.9565

            IN - OUT =       1.0827E-08              IN - OUT =       4.9840E-10

 PERCENT DISCREPANCY =           0.00     PERCENT DISCREPANCY =           0.00




         TIME SUMMARY AT END OF TIME STEP    4 IN STRESS PERIOD    1
                    SECONDS     MINUTES      HOURS       DAYS        YEARS
                    -----------------------------------------------------------
   TIME STEP LENGTH 8.64000E+05  14400.      240.00      10.000     2.73785E-02
 STRESS PERIOD TIME 3.45600E+06  57600.      960.00      40.000     0.10951    
         TOTAL TIME 3.45600E+06  57600.      960.00      40.000     0.10951    


end timestep


start timestep kper="1" kstp="5" mode="normal"

 UBDSV06 SAVING  SOURCE-SINK MIX IN MODEL H                PACKAGE H               CONNECTED TO MODEL H                PACKAGE SSM              ON UNIT   6542 AT TIME STEP      5, STRESS PERIOD      1
 UBDSV06 SAVING              CNC IN MODEL H                PACKAGE H               CONNECTED TO MODEL H                PACKAGE CNC              ON UNIT   6542 AT TIME STEP      5, STRESS PERIOD      1

 SSM PACKAGE (SSM) FLOW RATES   PERIOD      1   STEP        5
 ------------------------------------------------------------------------------------------------
   NUMBER   CELLID                   BOUND Q        SSM CONC          RATE         PACKAGE NAME  
 ------------------------------------------------------------------------------------------------
     1      (1,1,1)               2.08333321E-02  110692.76       2306.0990            CHD       
     2      (2,1,1)               2.08333321E-02  110692.76       2306.0990            CHD       
     3      (3,1,1)               2.08333321E-02  110692.76       2306.0990            CHD       
     4      (4,1,1)               0.0000000       0.0000000       0.0000000            CHD       
     5      (5,1,1)               0.0000000       0.0000000       0.0000000            CHD       
     6      (6,1,1)               0.0000000       0.0000000       0.0000000            CHD       
     7      (7,1,1)               0.0000000       0.0000000       0.0000000            CHD       
     8      (8,1,1)               0.0000000       0.0000000       0.0000000            CHD       
     9      (9,1,1)               0.0000000       0.0000000       0.0000000            CHD       
     10     (10,1,1)              0.0000000       0.0000000       0.0000000            CHD       
     11     (1,1,25)             -2.08333353E-02  110695.17      -2306.1495            CHD       
     12     (2,1,25)             -2.08333353E-02  110695.17      -2306.1495            CHD       
[...]
               21              22              23              24              25
 ................................................................................................................................................................
   1  110695.1670     110695.0890     110695.2471     110695.1466     110694.8178     110694.4057     110694.0104     110693.6982     110693.4824     110693.3369    
      110693.2271     110693.1263     110693.0240     110692.9279     110692.8441     110692.7976     110692.7473     110692.7078     110692.6956     110692.7081    
      110692.7666     110692.8622     110692.9847     110693.1261     110693.2707    

 CONCENTRATION WILL BE SAVED ON UNIT 6543 AT END OF TIME STEP  199, STRESS PERIOD    1


  MASS BUDGET FOR ENTIRE MODEL AT END OF TIME STEP  199, STRESS PERIOD   1
  ---------------------------------------------------------------------------------------------------

     CUMULATIVE MASS      M       RATES FOR THIS TIME STEP      M/T          PACKAGE NAME    
     ------------------                 ------------------------                     ----------------

           IN:                                      IN:
           ---                                      ---
     STORAGE-AQUEOUS =        1825.9255       STORAGE-AQUEOUS =           0.3235     MST                              
                 CHD =    13767411.5466                   CHD =        6918.2973     SSM_CHD                          
                 CNC =    32125463.4293                   CNC =       16143.4366     CNC                              

            TOTAL IN =    45894700.9014              TOTAL IN =       23062.0574

          OUT:                                     OUT:
          ----                                     ----
     STORAGE-AQUEOUS =        2474.9018       STORAGE-AQUEOUS =           0.9590     MST                              
                 CHD =    45892218.8027                   CHD =       23061.0984     SSM_CHD                          
                 CNC =           7.1969                   CNC =           0.0000     CNC                              

           TOTAL OUT =    45894700.9014             TOTAL OUT =       23062.0574

            IN - OUT =       1.6689E-06              IN - OUT =       3.3288E-09

 PERCENT DISCREPANCY =           0.00     PERCENT DISCREPANCY =           0.00




         TIME SUMMARY AT END OF TIME STEP  199 IN STRESS PERIOD    1
                    SECONDS     MINUTES      HOURS       DAYS        YEARS
                    -----------------------------------------------------------
   TIME STEP LENGTH 8.64000E+05  14400.      240.00      10.000     2.73785E-02
 STRESS PERIOD TIME 1.71936E+08 2.86560E+06  47760.      1990.0      5.4483    
         TOTAL TIME 1.71936E+08 2.86560E+06  47760.      1990.0      5.4483    


end timestep


start timestep kper="1" kstp="200" mode="normal"

 UBDSV06 SAVING  SOURCE-SINK MIX IN MODEL H                PACKAGE H               CONNECTED TO MODEL H                PACKAGE SSM              ON UNIT   6542 AT TIME STEP    200, STRESS PERIOD      1
 UBDSV06 SAVING              CNC IN MODEL H                PACKAGE H               CONNECTED TO MODEL H                PACKAGE CNC              ON UNIT   6542 AT TIME STEP    200, STRESS PERIOD      1

 SSM PACKAGE (SSM) FLOW RATES   PERIOD      1   STEP      200
 ------------------------------------------------------------------------------------------------
   NUMBER   CELLID                   BOUND Q        SSM CONC          RATE         PACKAGE NAME  
 ------------------------------------------------------------------------------------------------
     1      (1,1,1)               2.08333330E-02  110692.76       2306.0991            CHD       
     2      (2,1,1)               2.08333330E-02  110692.76       2306.0991            CHD       
     3      (3,1,1)               2.08333330E-02  110692.76       2306.0991            CHD       
     4      (4,1,1)               0.0000000       0.0000000       0.0000000            CHD       
     5      (5,1,1)               0.0000000       0.0000000       0.0000000            CHD       
     6      (6,1,1)               0.0000000       0.0000000       0.0000000            CHD       
     7      (7,1,1)               0.0000000       0.0000000       0.0000000            CHD       
     8      (8,1,1)               0.0000000       0.0000000       0.0000000            CHD       
     9      (9,1,1)               0.0000000       0.0000000       0.0000000            CHD       
     10     (10,1,1)              0.0000000       0.0000000       0.0000000            CHD       
     11     (1,1,25)             -2.08333337E-02  110693.25      -2306.1093            CHD       
     12     (2,1,25)             -2.08333337E-02  110693.25      -2306.1093            CHD       
     13     (3,1,25)             -2.08333337E-02  110693.25      -2306.1093            CHD       
     14     (4,1,25)             -2.08333337E-02  110693.25      -2306.1093            CHD       
     15     (5,1,25)             -2.08333337E-02  110693.25      -2306.1093            CHD       
     16     (6,1,25)             -2.08333337E-02  110693.25      -2306.1093            CHD       
     17     (7,1,25)             -2.08333337E-02  110693.25      -2306.1093            CHD       
     18     (8,1,25)             -2.08333337E-02  110693.25      -2306.1093            CHD       
     19     (9,1,25)             -2.08333337E-02  110693.25      -2306.1093            CHD       
     20     (10,1,25)            -2.08333337E-02  110693.25      -2306.1093            CHD       
 ------------------------------------------------------------------------------------------------




 CNC PACKAGE (CNC) FLOW RATES   PERIOD      1   STEP      200
 -----------------------------------------------
   NUMBER   CELLID                    RATE      
 -----------------------------------------------
     1      (4,1,1)               2306.5112     
     2      (5,1,1)               2306.1611     
     3      (6,1,1)               2306.1571     
     4      (7,1,1)               2306.1543     
     5      (8,1,1)               2306.1523     
     6      (9,1,1)               2306.1510     
     7      (10,1,1)              2306.1504     
 -----------------------------------------------



1
  CONCENTRATION IN LAYER   1 AT END OF TIME STEP 200 IN STRESS PERIOD    1
  ---------------------------------------------------------------------------

                1               2               3               4               5               6               7               8               9              10
               11              12              13              14              15              16              17              18              19              20
               21              22              23              24              25
 ................................................................................................................................................................
   1  110692.5164     110692.4946     110693.2165     110694.0412     110693.6612     110693.4350     110693.3955     110693.3696     110693.3168     110693.2574    
      110693.1808     110693.1085     110693.0276     110692.9384     110692.8537     110692.8052     110692.7541     110692.7132     110692.6987     110692.7058    
      110692.7585     110692.8491     110692.9673     110693.1051     110693.2468    
1
  CONCENTRATION IN LAYER   2 AT END OF TIME STEP 200 IN STRESS PERIOD    1
  ---------------------------------------------------------------------------

                1               2               3               4               5               6               7               8               9              10
               11              12              13              14              15              16              17              18              19              20
               21              22              23              24              25
 ................................................................................................................................................................
   1  110692.7733     110692.7606     110693.3488     110694.0124     110693.7502     110693.5201     110693.4425     110693.3905     110693.3263     110693.2614    
      110693.1843     110693.1101     110693.0281     110692.9386     110692.8537     110692.8053     110692.7542     110692.7133     110692.6987     110692.7058    
      110692.7585     110692.8491     110692.9673     110693.1051     110693.2468    
1
  CONCENTRATION IN LAYER   3 AT END OF TIME STEP 200 IN STRESS PERIOD    1
  ---------------------------------------------------------------------------

                1               2               3               4               5               6               7               8               9              10
               11              12              13              14              15              16              17              18              19              20
               21              22              23              24              25
 ................................................................................................................................................................
   1  110693.5130     110693.2466     110693.5903     110694.0380     110693.9004     110693.6688     110693.5259     110693.4290     110693.3442     110693.2694    
      110693.1906     110693.1131     110693.0291     110692.9389     110692.8538     110692.8055     110692.7545     110692.7134     110692.6988     110692.7058    
      110692.7585     110692.8491     110692.9673     110693.1051     110693.2468    
1
  CONCENTRATION IN LAYER   4 AT END OF TIME STEP 200 IN STRESS PERIOD    1
  ---------------------------------------------------------------------------

                1               2               3               4               5               6               7               8               9              10
               11              12              13              14              15              16              17              18              19              20
               21              22              23              24              25
 ................................................................................................................................................................
   1  110695.1670     110693.8318     110693.8960     110694.1960     110694.0930     110693.8380     110693.6274     110693.4793     110693.3685     110693.2813    
      110693.1987     110693.1171     110693.0305     110692.9393     110692.8538     110692.8059     110692.7548     110692.7136     110692.6989     110692.7058    
      110692.7584     110692.8491     110692.9673     110693.1051     110693.2468    
1
  CONCENTRATION IN LAYER   5 AT END OF TIME STEP 200 IN STRESS PERIOD    1
  ---------------------------------------------------------------------------

                1               2               3               4               5               6               7               8               9              10
               11              12              13              14              15              16              17              18              19              20
               21              22              23              24              25
 ................................................................................................................................................................
   1  110695.1670     110694.2612     110694.2090     110694.3454     110694.2718     110694.0011     110693.7319     110693.5350     110693.3971     110693.2958    
      110693.2074     110693.1215     110693.0321     110692.9398     110692.8539     110692.8064     110692.7552     110692.7138     110692.6990     110692.7058    
      110692.7584     110692.8491     110692.9672     110693.1051     110693.2468    
1
  CONCENTRATION IN LAYER   6 AT END OF TIME STEP 200 IN STRESS PERIOD    1
  ---------------------------------------------------------------------------

                1               2               3               4               5               6               7               8               9              10
               11              12              13              14              15              16              17              18              19              20
               21              22              23              24              25
 ................................................................................................................................................................
   1  110695.1670     110694.5672     110694.5137     110694.5469     110694.4339     110694.1401     110693.8279     110693.5903     110693.4267     110693.3111    
      110693.2164     110693.1261     110693.0337     110692.9403     110692.8541     110692.8069     110692.7557     110692.7141     110692.6991     110692.7058    
      110692.7584     110692.8491     110692.9672     110693.1051     110693.2468    
1
  CONCENTRATION IN LAYER   7 AT END OF TIME STEP 200 IN STRESS PERIOD    1
  ---------------------------------------------------------------------------

                1               2               3               4               5               6               7               8               9              10
               11              12              13              14              15              16              17              18              19              20
               21              22              23              24              25
 ................................................................................................................................................................
   1  110695.1670     110694.7830     110694.8119     110694.7646     110694.5761     110694.2512     110693.9088     110693.6401     110693.4543     110693.3258    
      110693.2248     110693.1305     110693.0351     110692.9408     110692.8543     110692.8074     110692.7561     110692.7144     110692.6992     110692.7059    
      110692.7584     110692.8491     110692.9672     110693.1051     110693.2468    
1
  CONCENTRATION IN LAYER   8 AT END OF TIME STEP 200 IN STRESS PERIOD    1
  ---------------------------------------------------------------------------

                1               2               3               4               5               6               7               8               9              10
               11              12              13              14              15              16              17              18              19              20
               21              22              23              24              25
 ................................................................................................................................................................
   1  110695.1670     110694.9361     110695.1152     110694.9498     110694.6889     110694.3344     110693.9714     110693.6805     110693.4774     110693.3383    
      110693.2319     110693.1344     110693.0361     110692.9412     110692.8544     110692.8079     110692.7565     110692.7146     110692.6993     110692.7059    
      110692.7584     110692.8491     110692.9672     110693.1051     110693.2468    
1
  CONCENTRATION IN LAYER   9 AT END OF TIME STEP 200 IN STRESS PERIOD    1
  ---------------------------------------------------------------------------

                1               2               3               4               5               6               7               8               9              10
               11              12              13              14              15              16              17              18              19              20
               21              22              23              24              25
 ................................................................................................................................................................
   1  110695.1670     110695.0383     110695.2141     110695.0690     110694.7678     110694.3904     110694.0138     110693.7089     110693.4940     110693.3473    
      110693.2370     110693.1373     110693.0368     110692.9415     110692.8546     110692.8082     110692.7567     110692.7148     110692.6994     110692.7059    
      110692.7584     110692.8491     110692.9672     110693.1051     110693.2468    
1
  CONCENTRATION IN LAYER  10 AT END OF TIME STEP 200 IN STRESS PERIOD    1
  ---------------------------------------------------------------------------

                1               2               3               4               5               6               7               8               9              10
               11              12              13              14              15              16              17              18              19              20
               21              22              23              24              25
 ................................................................................................................................................................
   1  110695.1670     110695.0797     110695.2414     110695.1256     110694.8083     110694.4186     110694.0353     110693.7235     110693.5026     110693.3521    
      110693.2397     110693.1389     110693.0372     110692.9417     110692.8546     110692.8084     110692.7569     110692.7149     110692.6994     110692.7060    
      110692.7584     110692.8491     110692.9672     110693.1051     110693.2468    

 CONCENTRATION WILL BE SAVED ON UNIT 6543 AT END OF TIME STEP  200, STRESS PERIOD    1


  MASS BUDGET FOR ENTIRE MODEL AT END OF TIME STEP  200, STRESS PERIOD   1
  ---------------------------------------------------------------------------------------------------

     CUMULATIVE MASS      M       RATES FOR THIS TIME STEP      M/T          PACKAGE NAME    
     ------------------                 ------------------------                     ----------------

           IN:                                      IN:
           ---                                      ---
     STORAGE-AQUEOUS =        1829.0865       STORAGE-AQUEOUS =           0.3161     MST                              
                 CHD =    13836594.5199                   CHD =        6918.2973     SSM_CHD                          
                 CNC =    32286897.8023                   CNC =       16143.4373     CNC                              

            TOTAL IN =    46125321.4087              TOTAL IN =       23062.0507

          OUT:                                     OUT:
          ----                                     ----
     STORAGE-AQUEOUS =        2484.4747       STORAGE-AQUEOUS =           0.9573     MST                              
                 CHD =    46122829.7372                   CHD =       23061.0934     SSM_CHD                          
                 CNC =           7.1969                   CNC =           0.0000     CNC                              

           TOTAL OUT =    46125321.4087             TOTAL OUT =       23062.0507

            IN - OUT =       1.7062E-06              IN - OUT =       3.2851E-09

 PERCENT DISCREPANCY =           0.00     PERCENT DISCREPANCY =           0.00




         TIME SUMMARY AT END OF TIME STEP  200 IN STRESS PERIOD    1
                    SECONDS     MINUTES      HOURS       DAYS        YEARS
                    -----------------------------------------------------------
   TIME STEP LENGTH 8.64000E+05  14400.      240.00      10.000     2.73785E-02
 STRESS PERIOD TIME 1.72800E+08 2.88000E+06  48000.      2000.0      5.4757    
         TOTAL TIME 1.72800E+08 2.88000E+06  48000.      2000.0      5.4757    


end timestep

