                                   MODFLOW 6
                U.S. GEOLOGICAL SURVEY MODULAR HYDROLOGIC MODEL
                       GROUNDWATER TRANSPORT MODEL (GWT)
                VERSION 6.5.0.dev0+prt (preliminary) 10/07/2023
                               ***DEVELOP MODE***

   MODFLOW 6 compiled Oct 07 2023 02:19:02 with Intel(R) Fortran Intel(R) 64
   Compiler Classic for applications running on Intel(R) 64, Version 2021.7.0
                             Build 20220726_000000

This software is preliminary or provisional and is subject to 
revision. It is being provided to meet the need for timely best 
science. The software has not received final approval by the U.S. 
Geological Survey (USGS). No warranty, expressed or implied, is made 
by the USGS or the U.S. Government as to the functionality of the 
software and related material nor shall the fact of release 
constitute any such warranty. The software is provided on the 
condition that neither the USGS nor the U.S. Government shall be held 
liable for any damages resulting from the authorized or unauthorized 
use of the software.


As a work of the United States Government, this USGS product is 
in the public domain within the United States. You can copy, 
modify, distribute, and perform the work, even for commercial 
purposes, all without asking permission. Additionally, USGS 
waives copyright and related rights in the work worldwide 
through CC0 1.0 Universal Public Domain Dedication 
(https://creativecommons.org/publicdomain/zero/1.0/).

The following GNU Lesser General Public License (LGPL) libraries
are used in this USGS product:

    SPARSKIT version 2.0
      ilut, luson, and qsplit 
      (https://www-users.cse.umn.edu/~saad/software/SPARSKIT/)

    RCM - Reverse Cuthill McKee Ordering
      (https://people.math.sc.edu/Burkardt/f_src/rcm/rcm.html)

    BLAS - Basic Linear Algebra Subprograms Level 1
      (https://people.math.sc.edu/Burkardt/f_src/blas1_d/blas1_d.html)

    SPARSEKIT - Sparse Matrix Utility Package
      amux, dperm, dvperm, rperm, and cperm
      (https://people.sc.fsu.edu/~jburkardt/f77_src/sparsekit/sparsekit.html)

The following BSD-3 License libraries are used in this USGS product:

    Modern Fortran DAG Library
      Copyright (c) 2018, Jacob Williams
      All rights reserved.
      (https://github.com/jacobwilliams/daglib)

MODFLOW 6 compiler options: /Isrc\libmf6core.a.p /Isrc /I..\src
/Isrc\libmf6_external.a.p /MTd /nologo /warn:general /warn:truncated_source
/stand:f08 /Zi /traceback /O2 /fpe:0 /heap-arrays:0 /traceback /fpp
/Qdiag-disable:7416 /Qdiag-disable:7025 /Qdiag-disable:5268
/Fdsrc\libmf6core.a.p\Utilities_compilerversion.F90.pdb
/module:src\libmf6core.a.p
/Fosrc/libmf6core.a.p/Utilities_compilerversion.F90.obj /c

System command used to initiate simulation:
c:\Users\portega\anaconda3\envs\mf6rtm\python.exe -m ipykernel_launcher --f=c:\Users\portega\AppData\Roaming\jupyter\runtime\kernel-v2-17404w7nug58txkWt.json

MODFLOW was compiled using uniform precision.

Real Variables
  KIND: 8
  TINY (smallest non-zero value):    2.225074-308
  HUGE (largest value):    1.797693+308
  PRECISION: 15
  SIZE IN BITS: 64

Integer Variables
  KIND: 4
  HUGE (largest value): 2147483647
  SIZE IN BITS: 32

Long Integer Variables
  KIND: 8
  HUGE (largest value): 9223372036854775807
  SIZE IN BITS: 64

Logical Variables
  KIND: 4
  SIZE IN BITS: 32
 
 NAMEFILE OPTIONS:
 END NAMEFILE OPTIONS:

 DIS -- STRUCTURED GRID DISCRETIZATION PACKAGE, VERSION 2 : 3/27/2014 - INPUT READ FROM MEMPATH: __INPUT__/H/DIS                                   


 DSP-- DISPERSION PACKAGE, VERSION 1, 1/24/2018 INPUT READ FROM MEMPATH: __INPUT__/H/DSP                                   


 Setting Discretization Options
    Model length unit [0=UND, 1=FEET, 2=METERS, 3=CENTIMETERS] set as 2
 End Setting Discretization Options

 Setting Discretization Dimensions
    NLAY = 10
    NROW = 1
    NCOL = 25
 End Setting Discretization Dimensions

 Setting Discretization Griddata
    DELR set from input file
    DELC set from input file
    TOP set from input file
    BOTM set from input file
    IDOMAIN set from input file
 End Setting Discretization Griddata


 FMI -- FLOW MODEL INTERFACE,' VERSION 2, 8/17/2023
  FLOWS PROVIDED BY A GWF MODEL IN THIS SIMULATION

 ADV-- ADVECTION PACKAGE, VERSION 1, 8/25/2017 INPUT READ FROM UNIT 1062


 # File generated by Flopy version 3.5.0.dev0 on 07/12/2024 at 15:45:50.
 PROCESSING ADVECTION OPTIONS
    ADVECTION WEIGHTING SCHEME HAS BEEN SET TO: TVD
 END OF ADVECTION OPTIONS
 Setting DSP Options
    XT3D formulation [0=INACTIVE, 1=ACTIVE, 3=ACTIVE RHS] set to: 0
 End Setting DSP Options

 Setting DSP Griddata
    ALH set from input file
    ATH1 set from input file
    ATV set from input file
 End Setting DSP Griddata


 CNC   -- CNC PACKAGE, VERSION 8, 2/22/2014 INPUT READ FROM UNIT 1096
 # File generated by Flopy version 3.5.0.dev0 on 07/12/2024 at 15:45:50.

 PROCESSING CNC OPTIONS
    CNC FLOWS WILL BE PRINTED TO LISTING FILE.
    FLOWS WILL BE SAVED TO BUDGET FILE SPECIFIED IN OUTPUT CONTROL
 END OF CNC OPTIONS

 PROCESSING CNC DIMENSIONS
    MAXBOUND =       7
 END OF CNC DIMENSIONS

 IC -- INITIAL CONDITIONS PACKAGE, VERSION 8, 3/28/2015 INPUT READ FROM UNIT 1060
 # File generated by Flopy version 3.5.0.dev0 on 07/12/2024 at 15:45:50.
 PROCESSING GRIDDATA

 OPENED H.ic_strt_layer1.txt
 FILE TYPE:OPEN/CLOSE   UNIT 1938   STATUS:OLD                 
 FORMAT:FORMATTED              ACCESS:SEQUENTIAL          
 ACTION:READ                


 OPENED H.ic_strt_layer2.txt
 FILE TYPE:OPEN/CLOSE   UNIT 1939   STATUS:OLD                 
 FORMAT:FORMATTED              ACCESS:SEQUENTIAL          
 ACTION:READ                


 OPENED H.ic_strt_layer3.txt
 FILE TYPE:OPEN/CLOSE   UNIT 1940   STATUS:OLD                 
 FORMAT:FORMATTED              ACCESS:SEQUENTIAL          
 ACTION:READ                


 OPENED H.ic_strt_layer4.txt
 FILE TYPE:OPEN/CLOSE   UNIT 1941   STATUS:OLD                 
 FORMAT:FORMATTED              ACCESS:SEQUENTIAL          
 ACTION:READ                


 OPENED H.ic_strt_layer5.txt
 FILE TYPE:OPEN/CLOSE   UNIT 1942   STATUS:OLD                 
 FORMAT:FORMATTED              ACCESS:SEQUENTIAL          
 ACTION:READ                


 OPENED H.ic_strt_layer6.txt
 FILE TYPE:OPEN/CLOSE   UNIT 1943   STATUS:OLD                 
 FORMAT:FORMATTED              ACCESS:SEQUENTIAL          
 ACTION:READ                


 OPENED H.ic_strt_layer7.txt
 FILE TYPE:OPEN/CLOSE   UNIT 1944   STATUS:OLD                 
 FORMAT:FORMATTED              ACCESS:SEQUENTIAL          
 ACTION:READ                


 OPENED H.ic_strt_layer8.txt
 FILE TYPE:OPEN/CLOSE   UNIT 1945   STATUS:OLD                 
 FORMAT:FORMATTED              ACCESS:SEQUENTIAL          
 ACTION:READ                


 OPENED H.ic_strt_layer9.txt
 FILE TYPE:OPEN/CLOSE   UNIT 1946   STATUS:OLD                 
 FORMAT:FORMATTED              ACCESS:SEQUENTIAL          
 ACTION:READ                


 OPENED H.ic_strt_layer10.txt
 FILE TYPE:OPEN/CLOSE   UNIT 1947   STATUS:OLD                 
 FORMAT:FORMATTED              ACCESS:SEQUENTIAL          
 ACTION:READ                

 END PROCESSING GRIDDATA

 MST -- MOBILE STORAGE AND TRANSFER PACKAGE, VERSION 1, 7/29/2020 INPUT READ FROM UNIT 1061


 # File generated by Flopy version 3.5.0.dev0 on 07/12/2024 at 15:45:50.
 PROCESSING MOBILE STORAGE AND TRANSFER OPTIONS
 END OF MOBILE STORAGE AND TRANSFER OPTIONS
 PROCESSING GRIDDATA

 OPENED H.mst_porosity.txt
 FILE TYPE:OPEN/CLOSE   UNIT 1948   STATUS:OLD                 
 FORMAT:FORMATTED              ACCESS:SEQUENTIAL          
 ACTION:READ                

 END PROCESSING GRIDDATA

 SSM -- SOURCE-SINK MIXING PACKAGE, VERSION 1, 8/25/2017 INPUT READ FROM UNIT 1094


 # File generated by Flopy version 3.5.0.dev0 on 07/12/2024 at 15:45:50.
 PROCESSING SSM OPTIONS
    SSM FLOW INFORMATION WILL BE PRINTED TO LISTING FILE WHENEVER ICBCFL IS NOT ZERO.
    CELL-BY-CELL FLOW INFORMATION WILL BE SAVED TO BINARY FILE WHENEVER ICBCFL IS NOT ZERO.
 END OF SSM OPTIONS

 OPENED H.ssm_sources.txt
 FILE TYPE:OPEN/CLOSE   UNIT 1949   STATUS:OLD                 
 FORMAT:FORMATTED              ACCESS:SEQUENTIAL          
 ACTION:READ                

 PROCESSING SOURCES
 AUX SOURCE DETECTED.
    USING AUX COLUMN 1 IN PACKAGE CHD
 END PROCESSING SOURCES
 OPTIONAL FILEINPUT BLOCK NOT FOUND.  CONTINUING.
      THE LAST TIME STEP WILL BE PRINTED
      THE LAST TIME STEP WILL BE PRINTED
 # File generated by Flopy version 3.5.0.dev0 on 07/12/2024 at 15:45:50.

 PROCESSING OC OPTIONS

    BUDGET INFORMATION WILL BE WRITTEN TO:
      UNIT NUMBER: 1950
      FILE NAME: H.cbb

 OPENED H.cbb
 FILE TYPE:DATA(BINARY)   UNIT 1950   STATUS:REPLACE             
 FORMAT:UNFORMATTED            ACCESS:STREAM              
 ACTION:READWRITE           

    CONCENTRATION INFORMATION WILL BE WRITTEN TO:
      UNIT NUMBER: 1951
      FILE NAME: H.ucn

 OPENED H.ucn
 FILE TYPE:DATA(BINARY)   UNIT 1951   STATUS:REPLACE             
 FORMAT:UNFORMATTED            ACCESS:STREAM              
 ACTION:READWRITE           

 END OF OC OPTIONS

start timestep kper="1" kstp="1" mode="normal"


 BEGIN READING OUTPUT CONTROL FOR STRESS PERIOD 1
      ALL TIME STEPS WILL BE SAVED
      ALL TIME STEPS WILL BE SAVED
      ALL TIME STEPS WILL BE PRINTED
      ALL TIME STEPS WILL BE PRINTED

 END READING OUTPUT CONTROL FOR STRESS PERIOD 1

 OPENED H.cnc_stress_period_data_1.txt
 FILE TYPE:OPEN/CLOSE   UNIT 2134   STATUS:OLD                 
 FORMAT:FORMATTED              ACCESS:SEQUENTIAL          
 ACTION:READ                

 UBDSV06 SAVING  SOURCE-SINK MIX IN MODEL H                PACKAGE H               CONNECTED TO MODEL H                PACKAGE SSM              ON UNIT   1950 AT TIME STEP      1, STRESS PERIOD      1
 UBDSV06 SAVING              CNC IN MODEL H                PACKAGE H               CONNECTED TO MODEL H                PACKAGE CNC              ON UNIT   1950 AT TIME STEP      1, STRESS PERIOD      1

 SSM PACKAGE (SSM) FLOW RATES   PERIOD      1   STEP        1
 ------------------------------------------------------------------------------------------------
   NUMBER   CELLID                   BOUND Q        SSM CONC          RATE         PACKAGE NAME  
 ------------------------------------------------------------------------------------------------
     1      (1,1,1)               2.08333361E-02  110692.76       2306.0995            CHD       
     2      (2,1,1)               2.08333361E-02  110692.76       2306.0995            CHD       
     3      (3,1,1)               2.08333361E-02  110692.76       2306.0995            CHD       
     4      (4,1,1)               0.0000000       0.0000000       0.0000000            CHD       
     5      (5,1,1)               0.0000000       0.0000000       0.0000000            CHD       
     6      (6,1,1)               0.0000000       0.0000000       0.0000000            CHD       
     7      (7,1,1)               0.0000000       0.0000000       0.0000000            CHD       
     8      (8,1,1)               0.0000000       0.0000000       0.0000000            CHD       
     9      (9,1,1)               0.0000000       0.0000000       0.0000000            CHD       
     10     (10,1,1)              0.0000000       0.0000000       0.0000000            CHD       
     11     (1,1,25)             -2.08333402E-02  110695.17      -2306.1501            CHD       
     12     (2,1,25)             -2.08333402E-02  110695.17      -2306.1501            CHD       
     13     (3,1,25)             -2.08333402E-02  110695.17      -2306.1501            CHD       
     14     (4,1,25)             -2.08333403E-02  110695.17      -2306.1501            CHD       
     15     (5,1,25)             -2.08333403E-02  110695.17      -2306.1501            CHD       
     16     (6,1,25)             -2.08333403E-02  110695.17      -2306.1501            CHD       
     17     (7,1,25)             -2.08333403E-02  110695.17      -2306.1501            CHD       
     18     (8,1,25)             -2.08333403E-02  110695.17      -2306.1501            CHD       
     19     (9,1,25)             -2.08333403E-02  110695.17      -2306.1501            CHD       
     20     (10,1,25)            -2.08333403E-02  110695.17      -2306.1501            CHD       
 ------------------------------------------------------------------------------------------------




 CNC PACKAGE (CNC) FLOW RATES   PERIOD      1   STEP        1
 -----------------------------------------------
   NUMBER   CELLID                    RATE      
 -----------------------------------------------
     1      (4,1,1)               2306.1851     
     2      (5,1,1)               2306.1497     
     3      (6,1,1)               2306.1497     
     4      (7,1,1)               2306.1496     
     5      (8,1,1)               2306.1496     
     6      (9,1,1)               2306.1496     
     7      (10,1,1)              2306.1496     
 -----------------------------------------------



1
  CONCENTRATION IN LAYER   1 AT END OF TIME STEP   1 IN STRESS PERIOD    1
  ---------------------------------------------------------------------------

                1               2               3               4               5               6               7               8               9              10
               11              12              13              14              15              16              17              18              19              20
               21              22              23              24              25
 ................................................................................................................................................................
   1  110693.5004     110694.8780     110695.1391     110695.1642     110695.1666     110695.1667     110695.1664     110695.1661     110695.1663     110695.1667    
      110695.1667     110695.1664     110695.1660     110695.1659     110695.1659     110695.1660     110695.1660     110695.1659     110695.1658     110695.1658    
      110695.1659     110695.1660     110695.1661     110695.1662     110695.1663    
1
  CONCENTRATION IN LAYER   2 AT END OF TIME STEP   1 IN STRESS PERIOD    1
  ---------------------------------------------------------------------------

                1               2               3               4               5               6               7               8               9              10
               11              12              13              14              15              16              17              18              19              20
               21              22              23              24              25
 ................................................................................................................................................................
   1  110693.6549     110694.9138     110695.1420     110695.1647     110695.1670     110695.1670     110695.1664     110695.1659     110695.1664     110695.1670    
      110695.1670     110695.1665     110695.1658     110695.1656     110695.1657     110695.1658     110695.1657     110695.1656     110695.1655     110695.1656    
      110695.1657     110695.1659     110695.1660     110695.1662     110695.1663    
1
  CONCENTRATION IN LAYER   3 AT END OF TIME STEP   1 IN STRESS PERIOD    1
  ---------------------------------------------------------------------------

                1               2               3               4               5               6               7               8               9              10
               11              12              13              14              15              16              17              18              19              20
               21              22              23              24              25
 ................................................................................................................................................................
   1  110694.0907     110694.9895     110695.1471     110695.1656     110695.1677     110695.1675     110695.1663     110695.1656     110695.1664     110695.1676    
      110695.1675     110695.1666     110695.1655     110695.1651     110695.1653     110695.1655     110695.1654     110695.1652     110695.1651     110695.1652    
      110695.1654     110695.1657     110695.1659     110695.1662     110695.1663    
1
  CONCENTRATION IN LAYER   4 AT END OF TIME STEP   1 IN STRESS PERIOD    1
  ---------------------------------------------------------------------------

                1               2               3               4               5               6               7               8               9              10
               11              12              13              14              15              16              17              18              19              20
               21              22              23              24              25
 ................................................................................................................................................................
   1  110695.1670     110695.0960     110695.1518     110695.1663     110695.1683     110695.1679     110695.1661     110695.1653     110695.1665     110695.1681    
      110695.1680     110695.1667     110695.1652     110695.1648     110695.1651     110695.1653     110695.1652     110695.1649     110695.1647     110695.1648    
      110695.1651     110695.1655     110695.1658     110695.1661     110695.1663    
1
  CONCENTRATION IN LAYER   5 AT END OF TIME STEP   1 IN STRESS PERIOD    1
  ---------------------------------------------------------------------------

                1               2               3               4               5               6               7               8               9              10
               11              12              13              14              15              16              17              18              19              20
               21              22              23              24              25
 ................................................................................................................................................................
   1  110695.1670     110695.1386     110695.1576     110695.1670     110695.1686     110695.1681     110695.1660     110695.1651     110695.1665     110695.1684    
      110695.1683     110695.1667     110695.1650     110695.1646     110695.1649     110695.1653     110695.1651     110695.1647     110695.1645     110695.1646    
      110695.1650     110695.1654     110695.1657     110695.1661     110695.1663    
1
  CONCENTRATION IN LAYER   6 AT END OF TIME STEP   1 IN STRESS PERIOD    1
  ---------------------------------------------------------------------------

                1               2               3               4               5               6               7               8               9              10
               11              12              13              14              15              16              17              18              19              20
               21              22              23              24              25
 ................................................................................................................................................................
   1  110695.1670     110695.1552     110695.1621     110695.1675     110695.1687     110695.1681     110695.1659     110695.1650     110695.1665     110695.1685    
      110695.1684     110695.1668     110695.1650     110695.1645     110695.1649     110695.1653     110695.1651     110695.1647     110695.1645     110695.1646    
      110695.1649     110695.1653     110695.1656     110695.1661     110695.1663    
1
  CONCENTRATION IN LAYER   7 AT END OF TIME STEP   1 IN STRESS PERIOD    1
  ---------------------------------------------------------------------------

                1               2               3               4               5               6               7               8               9              10
               11              12              13              14              15              16              17              18              19              20
               21              22              23              24              25
 ................................................................................................................................................................
   1  110695.1670     110695.1618     110695.1645     110695.1677     110695.1686     110695.1680     110695.1659     110695.1651     110695.1665     110695.1684    
      110695.1683     110695.1668     110695.1651     110695.1646     110695.1650     110695.1653     110695.1652     110695.1648     110695.1645     110695.1647    
      110695.1650     110695.1653     110695.1657     110695.1661     110695.1663    
1
  CONCENTRATION IN LAYER   8 AT END OF TIME STEP   1 IN STRESS PERIOD    1
  ---------------------------------------------------------------------------

                1               2               3               4               5               6               7               8               9              10
               11              12              13              14              15              16              17              18              19              20
               21              22              23              24              25
 ................................................................................................................................................................
   1  110695.1670     110695.1644     110695.1658     110695.1677     110695.1684     110695.1678     110695.1659     110695.1652     110695.1665     110695.1682    
      110695.1681     110695.1667     110695.1652     110695.1648     110695.1651     110695.1654     110695.1653     110695.1649     110695.1647     110695.1648    
      110695.1651     110695.1654     110695.1657     110695.1661     110695.1663    
1
  CONCENTRATION IN LAYER   9 AT END OF TIME STEP   1 IN STRESS PERIOD    1
  ---------------------------------------------------------------------------

                1               2               3               4               5               6               7               8               9              10
               11              12              13              14              15              16              17              18              19              20
               21              22              23              24              25
 ................................................................................................................................................................
   1  110695.1670     110695.1655     110695.1663     110695.1675     110695.1680     110695.1675     110695.1659     110695.1654     110695.1665     110695.1678    
      110695.1678     110695.1667     110695.1654     110695.1650     110695.1653     110695.1656     110695.1654     110695.1652     110695.1650     110695.1651    
      110695.1653     110695.1656     110695.1658     110695.1661     110695.1663    
1
  CONCENTRATION IN LAYER  10 AT END OF TIME STEP   1 IN STRESS PERIOD    1
  ---------------------------------------------------------------------------

                1               2               3               4               5               6               7               8               9              10
               11              12              13              14              15              16              17              18              19              20
               21              22              23              24              25
 ................................................................................................................................................................
   1  110695.1670     110695.1658     110695.1663     110695.1670     110695.1673     110695.1670     110695.1661     110695.1658     110695.1664     110695.1672    
      110695.1672     110695.1665     110695.1658     110695.1655     110695.1657     110695.1658     110695.1658     110695.1656     110695.1655     110695.1655    
      110695.1657     110695.1658     110695.1660     110695.1662     110695.1663    

 CONCENTRATION WILL BE SAVED ON UNIT 1951 AT END OF TIME STEP    1, STRESS PERIOD    1


  MASS BUDGET FOR ENTIRE MODEL AT END OF TIME STEP    1, STRESS PERIOD   1
  ---------------------------------------------------------------------------------------------------

     CUMULATIVE MASS      M       RATES FOR THIS TIME STEP      M/T          PACKAGE NAME    
     ------------------                 ------------------------                     ----------------

           IN:                                      IN:
           ---                                      ---
     STORAGE-AQUEOUS =           1.3045       STORAGE-AQUEOUS =           0.1304     MST                              
                 CHD =       69182.9855                   CHD =        6918.2986     SSM_CHD                          
                 CNC =      161430.8296                   CNC =       16143.0830     CNC                              

            TOTAL IN =      230615.1196              TOTAL IN =       23061.5120

          OUT:                                     OUT:
          ----                                     ----
     STORAGE-AQUEOUS =           0.1116       STORAGE-AQUEOUS =       1.1163E-02     MST                              
                 CHD =      230615.0080                   CHD =       23061.5008     SSM_CHD                          
                 CNC =           0.0000                   CNC =           0.0000     CNC                              

           TOTAL OUT =      230615.1196             TOTAL OUT =       23061.5120

            IN - OUT =      -6.6939E-10              IN - OUT =      -6.9122E-11

 PERCENT DISCREPANCY =          -0.00     PERCENT DISCREPANCY =          -0.00




         TIME SUMMARY AT END OF TIME STEP    1 IN STRESS PERIOD    1
                    SECONDS     MINUTES      HOURS       DAYS        YEARS
                    -----------------------------------------------------------
   TIME STEP LENGTH 8.64000E+05  14400.      240.00      10.000     2.73785E-02
 STRESS PERIOD TIME 8.64000E+05  14400.      240.00      10.000     2.73785E-02
         TOTAL TIME 8.64000E+05  14400.      240.00      10.000     2.73785E-02


end timestep


start timestep kper="1" kstp="2" mode="normal"

 UBDSV06 SAVING  SOURCE-SINK MIX IN MODEL H                PACKAGE H               CONNECTED TO MODEL H                PACKAGE SSM              ON UNIT   1950 AT TIME STEP      2, STRESS PERIOD      1
 UBDSV06 SAVING              CNC IN MODEL H                PACKAGE H               CONNECTED TO MODEL H                PACKAGE CNC              ON UNIT   1950 AT TIME STEP      2, STRESS PERIOD      1

 SSM PACKAGE (SSM) FLOW RATES   PERIOD      1   STEP        2
 ------------------------------------------------------------------------------------------------
   NUMBER   CELLID                   BOUND Q        SSM CONC          RATE         PACKAGE NAME  
 ------------------------------------------------------------------------------------------------
     1      (1,1,1)               2.08333319E-02  110692.76       2306.0990            CHD       
     2      (2,1,1)               2.08333319E-02  110692.76       2306.0990            CHD       
     3      (3,1,1)               2.08333319E-02  110692.76       2306.0990            CHD       
     4      (4,1,1)               0.0000000       0.0000000       0.0000000            CHD       
     5      (5,1,1)               0.0000000       0.0000000       0.0000000            CHD       
     6      (6,1,1)               0.0000000       0.0000000       0.0000000            CHD       
     7      (7,1,1)               0.0000000       0.0000000       0.0000000            CHD       
     8      (8,1,1)               0.0000000       0.0000000       0.0000000            CHD       
     9      (9,1,1)               0.0000000       0.0000000       0.0000000            CHD       
     10     (10,1,1)              0.0000000       0.0000000       0.0000000            CHD       
     11     (1,1,25)             -2.08333370E-02  110695.17      -2306.1497            CHD       
     12     (2,1,25)             -2.08333370E-02  110695.17      -2306.1497            CHD       
     13     (3,1,25)             -2.08333370E-02  110695.17      -2306.1497            CHD       
     14     (4,1,25)             -2.08333370E-02  110695.17      -2306.1497            CHD       
     15     (5,1,25)             -2.08333370E-02  110695.17      -2306.1497            CHD       
     16     (6,1,25)             -2.08333370E-02  110695.17      -2306.1497            CHD       
     17     (7,1,25)             -2.08333370E-02  110695.17      -2306.1497            CHD       
     18     (8,1,25)             -2.08333370E-02  110695.17      -2306.1497            CHD       
     19     (9,1,25)             -2.08333370E-02  110695.17      -2306.1497            CHD       
     20     (10,1,25)            -2.08333370E-02  110695.17      -2306.1497            CHD       
 ------------------------------------------------------------------------------------------------




 CNC PACKAGE (CNC) FLOW RATES   PERIOD      1   STEP        2
 -----------------------------------------------
   NUMBER   CELLID                    RATE      
 -----------------------------------------------
     1      (4,1,1)               2306.3134     
     2      (5,1,1)               2306.1500     
     3      (6,1,1)               2306.1495     
     4      (7,1,1)               2306.1493     
     5      (8,1,1)               2306.1492     
     6      (9,1,1)               2306.1492     
     7      (10,1,1)              2306.1492     
 -----------------------------------------------



1
  CONCENTRATION IN LAYER   1 AT END OF TIME STEP   2 IN STRESS PERIOD    1
  ---------------------------------------------------------------------------

                1               2               3               4               5               6               7               8               9              10
               11              12              13              14              15              16              17              18              19              20
               21              22              23              24              25
 ................................................................................................................................................................
   1  110692.3320     110694.4168     110695.1335     110695.1647     110695.1665     110695.1668     110695.1668     110695.1666     110695.1666     110695.1667    
      110695.1665     110695.1663     110695.1660     110695.1658     110695.1657     110695.1656     110695.1655     110695.1654     110695.1654     110695.1655    
      110695.1656     110695.1658     110695.1659     110695.1661     110695.1662    
1
  CONCENTRATION IN LAYER   2 AT END OF TIME STEP   2 IN STRESS PERIOD    1
  ---------------------------------------------------------------------------

                1               2               3               4               5               6               7               8               9              10
               11              12              13              14              15              16              17              18              19              20
               21              22              23              24              25
 ................................................................................................................................................................
   1  110692.6596     110694.5160     110695.1346     110695.1647     110695.1665     110695.1669     110695.1671     110695.1669     110695.1668     110695.1667    
      110695.1664     110695.1662     110695.1659     110695.1657     110695.1655     110695.1653     110695.1652     110695.1651     110695.1652     110695.1653    
      110695.1654     110695.1656     110695.1658     110695.1661     110695.1662    
1
  CONCENTRATION IN LAYER   3 AT END OF TIME STEP   2 IN STRESS PERIOD    1
  ---------------------------------------------------------------------------

                1               2               3               4               5               6               7               8               9              10
               11              12              13              14              15              16              17              18              19              20
               21              22              23              24              25
 ................................................................................................................................................................
   1  110693.4784     110694.7105     110695.1350     110695.1645     110695.1664     110695.1670     110695.1675     110695.1675     110695.1672     110695.1667    
      110695.1662     110695.1660     110695.1658     110695.1655     110695.1652     110695.1649     110695.1647     110695.1647     110695.1647     110695.1649    
      110695.1651     110695.1654     110695.1657     110695.1661     110695.1662    
1
  CONCENTRATION IN LAYER   4 AT END OF TIME STEP   2 IN STRESS PERIOD    1
  ---------------------------------------------------------------------------

                1               2               3               4               5               6               7               8               9              10
               11              12              13              14              15              16              17              18              19              20
               21              22              23              24              25
 ................................................................................................................................................................
   1  110695.1670     110694.9610     110695.1293     110695.1640     110695.1664     110695.1672     110695.1679     110695.1679     110695.1675     110695.1667    
      110695.1661     110695.1659     110695.1657     110695.1654     110695.1650     110695.1645     110695.1643     110695.1643     110695.1644     110695.1646    
      110695.1648     110695.1651     110695.1655     110695.1660     110695.1662    
1
  CONCENTRATION IN LAYER   5 AT END OF TIME STEP   2 IN STRESS PERIOD    1
  ---------------------------------------------------------------------------

                1               2               3               4               5               6               7               8               9              10
               11              12              13              14              15              16              17              18              19              20
               21              22              23              24              25
 ................................................................................................................................................................
   1  110695.1670     110695.0753     110695.1391     110695.1643     110695.1665     110695.1674     110695.1680     110695.1682     110695.1676     110695.1667    
      110695.1660     110695.1659     110695.1657     110695.1654     110695.1648     110695.1643     110695.1641     110695.1641     110695.1642     110695.1644    
      110695.1646     110695.1650     110695.1654     110695.1660     110695.1662    
1
  CONCENTRATION IN LAYER   6 AT END OF TIME STEP   2 IN STRESS PERIOD    1
  ---------------------------------------------------------------------------

                1               2               3               4               5               6               7               8               9              10
               11              12              13              14              15              16              17              18              19              20
               21              22              23              24              25
 ................................................................................................................................................................
   1  110695.1670     110695.1267     110695.1491     110695.1650     110695.1666     110695.1675     110695.1681     110695.1682     110695.1677     110695.1668    
      110695.1660     110695.1659     110695.1657     110695.1654     110695.1648     110695.1643     110695.1640     110695.1640     110695.1641     110695.1643    
      110695.1646     110695.1649     110695.1653     110695.1659     110695.1662    
1
  CONCENTRATION IN LAYER   7 AT END OF TIME STEP   2 IN STRESS PERIOD    1
  ---------------------------------------------------------------------------

                1               2               3               4               5               6               7               8               9              10
               11              12              13              14              15              16              17              18              19              20
               21              22              23              24              25
 ................................................................................................................................................................
   1  110695.1670     110695.1495     110695.1560     110695.1657     110695.1667     110695.1675     110695.1680     110695.1681     110695.1676     110695.1668    
      110695.1661     110695.1659     110695.1657     110695.1654     110695.1649     110695.1644     110695.1641     110695.1641     110695.1642     110695.1644    
      110695.1646     110695.1650     110695.1653     110695.1659     110695.1662    
1
  CONCENTRATION IN LAYER   8 AT END OF TIME STEP   2 IN STRESS PERIOD    1
  ---------------------------------------------------------------------------

                1               2               3               4               5               6               7               8               9              10
               11              12              13              14              15              16              17              18              19              20
               21              22              23              24              25
 ................................................................................................................................................................
   1  110695.1670     110695.1592     110695.1605     110695.1662     110695.1667     110695.1674     110695.1679     110695.1680     110695.1675     110695.1667    
      110695.1661     110695.1660     110695.1658     110695.1655     110695.1650     110695.1645     110695.1643     110695.1643     110695.1643     110695.1645    
      110695.1647     110695.1651     110695.1654     110695.1659     110695.1662    
1
  CONCENTRATION IN LAYER   9 AT END OF TIME STEP   2 IN STRESS PERIOD    1
  ---------------------------------------------------------------------------

                1               2               3               4               5               6               7               8               9              10
               11              12              13              14              15              16              17              18              19              20
               21              22              23              24              25
 ................................................................................................................................................................
   1  110695.1670     110695.1633     110695.1630     110695.1664     110695.1667     110695.1673     110695.1676     110695.1676     110695.1672     110695.1667    
      110695.1662     110695.1661     110695.1658     110695.1656     110695.1652     110695.1648     110695.1646     110695.1646     110695.1646     110695.1648    
      110695.1649     110695.1652     110695.1655     110695.1660     110695.1662    
1
  CONCENTRATION IN LAYER  10 AT END OF TIME STEP   2 IN STRESS PERIOD    1
  ---------------------------------------------------------------------------

                1               2               3               4               5               6               7               8               9              10
               11              12              13              14              15              16              17              18              19              20
               21              22              23              24              25
 ................................................................................................................................................................
   1  110695.1670     110695.1648     110695.1640     110695.1665     110695.1669     110695.1672     110695.1671     110695.1669     110695.1669     110695.1669    
      110695.1666     110695.1663     110695.1659     110695.1656     110695.1654     110695.1652     110695.1651     110695.1650     110695.1650     110695.1651    
      110695.1652     110695.1655     110695.1657     110695.1660     110695.1662    

 CONCENTRATION WILL BE SAVED ON UNIT 1951 AT END OF TIME STEP    2, STRESS PERIOD    1


  MASS BUDGET FOR ENTIRE MODEL AT END OF TIME STEP    2, STRESS PERIOD   1
  ---------------------------------------------------------------------------------------------------

     CUMULATIVE MASS      M       RATES FOR THIS TIME STEP      M/T          PACKAGE NAME    
     ------------------                 ------------------------                     ----------------

           IN:                                      IN:
           ---                                      ---
     STORAGE-AQUEOUS =           2.4243       STORAGE-AQUEOUS =           0.1120     MST                              
                 CHD =      138365.9569                   CHD =        6918.2971     SSM_CHD                          
                 CNC =      322862.9278                   CNC =       16143.2098     CNC                              

            TOTAL IN =      461231.3091              TOTAL IN =       23061.6189

          OUT:                                     OUT:
          ----                                     ----
     STORAGE-AQUEOUS =           1.3308       STORAGE-AQUEOUS =           0.1219     MST                              
                 CHD =      461229.9783                   CHD =       23061.4970     SSM_CHD                          
                 CNC =           0.0000                   CNC =           0.0000     CNC                              

           TOTAL OUT =      461231.3091             TOTAL OUT =       23061.6189

            IN - OUT =       1.6298E-09              IN - OUT =       2.2919E-10

 PERCENT DISCREPANCY =           0.00     PERCENT DISCREPANCY =           0.00




         TIME SUMMARY AT END OF TIME STEP    2 IN STRESS PERIOD    1
                    SECONDS     MINUTES      HOURS       DAYS        YEARS
                    -----------------------------------------------------------
   TIME STEP LENGTH 8.64000E+05  14400.      240.00      10.000     2.73785E-02
 STRESS PERIOD TIME 1.72800E+06  28800.      480.00      20.000     5.47570E-02
         TOTAL TIME 1.72800E+06  28800.      480.00      20.000     5.47570E-02


end timestep


start timestep kper="1" kstp="3" mode="normal"

 UBDSV06 SAVING  SOURCE-SINK MIX IN MODEL H                PACKAGE H               CONNECTED TO MODEL H                PACKAGE SSM              ON UNIT   1950 AT TIME STEP      3, STRESS PERIOD      1
 UBDSV06 SAVING              CNC IN MODEL H                PACKAGE H               CONNECTED TO MODEL H                PACKAGE CNC              ON UNIT   1950 AT TIME STEP      3, STRESS PERIOD      1

 SSM PACKAGE (SSM) FLOW RATES   PERIOD      1   STEP        3
 ------------------------------------------------------------------------------------------------
   NUMBER   CELLID                   BOUND Q        SSM CONC          RATE         PACKAGE NAME  
 ------------------------------------------------------------------------------------------------
     1      (1,1,1)               2.08333325E-02  110692.76       2306.0991            CHD       
     2      (2,1,1)               2.08333325E-02  110692.76       2306.0991            CHD       
     3      (3,1,1)               2.08333325E-02  110692.76       2306.0991            CHD       
     4      (4,1,1)               0.0000000       0.0000000       0.0000000            CHD       
     5      (5,1,1)               0.0000000       0.0000000       0.0000000            CHD       
     6      (6,1,1)               0.0000000       0.0000000       0.0000000            CHD       
     7      (7,1,1)               0.0000000       0.0000000       0.0000000            CHD       
     8      (8,1,1)               0.0000000       0.0000000       0.0000000            CHD       
     9      (9,1,1)               0.0000000       0.0000000       0.0000000            CHD       
     10     (10,1,1)              0.0000000       0.0000000       0.0000000            CHD       
     11     (1,1,25)             -2.08333362E-02  110695.17      -2306.1496            CHD       
     12     (2,1,25)             -2.08333362E-02  110695.17      -2306.1496            CHD       
     13     (3,1,25)             -2.08333362E-02  110695.17      -2306.1496            CHD       
     14     (4,1,25)             -2.08333362E-02  110695.17      -2306.1496            CHD       
     15     (5,1,25)             -2.08333362E-02  110695.17      -2306.1496            CHD       
     16     (6,1,25)             -2.08333362E-02  110695.17      -2306.1496            CHD       
     17     (7,1,25)             -2.08333362E-02  110695.17      -2306.1496            CHD       
     18     (8,1,25)             -2.08333362E-02  110695.17      -2306.1496            CHD       
     19     (9,1,25)             -2.08333362E-02  110695.17      -2306.1496            CHD       
     20     (10,1,25)            -2.08333362E-02  110695.17      -2306.1496            CHD       
 ------------------------------------------------------------------------------------------------




 CNC PACKAGE (CNC) FLOW RATES   PERIOD      1   STEP        3
 -----------------------------------------------
   NUMBER   CELLID                    RATE      
 -----------------------------------------------
     1      (4,1,1)               2306.3959     
     2      (5,1,1)               2306.1512     
     3      (6,1,1)               2306.1502     
     4      (7,1,1)               2306.1497     
     5      (8,1,1)               2306.1495     
     6      (9,1,1)               2306.1493     
     7      (10,1,1)              2306.1493     
 -----------------------------------------------



1
  CONCENTRATION IN LAYER   1 AT END OF TIME STEP   3 IN STRESS PERIOD    1
  ---------------------------------------------------------------------------

                1               2               3               4               5               6               7               8               9              10
               11              12              13              14              15              16              17              18              19              20
               21              22              23              24              25
 ................................................................................................................................................................
   1  110688.3911     110693.9192     110695.1136     110695.1646     110695.1666     110695.1670     110695.1670     110695.1669     110695.1668     110695.1667    
      110695.1665     110695.1663     110695.1659     110695.1656     110695.1654     110695.1652     110695.1651     110695.1651     110695.1651     110695.1651    
      110695.1653     110695.1655     110695.1657     110695.1660     110695.1662    
1
  CONCENTRATION IN LAYER   2 AT END OF TIME STEP   3 IN STRESS PERIOD    1
  ---------------------------------------------------------------------------

                1               2               3               4               5               6               7               8               9              10
               11              12              13              14              15              16              17              18              19              20
               21              22              23              24              25
 ................................................................................................................................................................
   1  110691.9915     110694.0744     110695.1245     110695.1647     110695.1666     110695.1671     110695.1672     110695.1670     110695.1668     110695.1667    
      110695.1665     110695.1662     110695.1658     110695.1654     110695.1652     110695.1650     110695.1649     110695.1648     110695.1648     110695.1649    
      110695.1651     110695.1654     110695.1657     110695.1660     110695.1662    
1
  CONCENTRATION IN LAYER   3 AT END OF TIME STEP   3 IN STRESS PERIOD    1
  ---------------------------------------------------------------------------

                1               2               3               4               5               6               7               8               9              10
               11              12              13              14              15              16              17              18              19              20
               21              22              23              24              25
 ................................................................................................................................................................
   1  110693.0901     110694.3760     110695.1340     110695.1642     110695.1667     110695.1674     110695.1674     110695.1672     110695.1669     110695.1667    
      110695.1664     110695.1661     110695.1656     110695.1652     110695.1648     110695.1646     110695.1645     110695.1644     110695.1644     110695.1646    
      110695.1648     110695.1651     110695.1655     110695.1660     110695.1662    
1
  CONCENTRATION IN LAYER   4 AT END OF TIME STEP   3 IN STRESS PERIOD    1
  ---------------------------------------------------------------------------

                1               2               3               4               5               6               7               8               9              10
               11              12              13              14              15              16              17              18              19              20
               21              22              23              24              25
 ................................................................................................................................................................
   1  110695.1670     110694.7812     110695.1040     110695.1618     110695.1667     110695.1676     110695.1676     110695.1674     110695.1671     110695.1667    
      110695.1664     110695.1660     110695.1655     110695.1650     110695.1645     110695.1643     110695.1641     110695.1641     110695.1641     110695.1642    
      110695.1645     110695.1649     110695.1653     110695.1659     110695.1662    
1
  CONCENTRATION IN LAYER   5 AT END OF TIME STEP   3 IN STRESS PERIOD    1
  ---------------------------------------------------------------------------

                1               2               3               4               5               6               7               8               9              10
               11              12              13              14              15              16              17              18              19              20
               21              22              23              24              25
 ................................................................................................................................................................
   1  110695.1670     110694.9815     110695.1134     110695.1611     110695.1667     110695.1677     110695.1678     110695.1676     110695.1671     110695.1668    
      110695.1664     110695.1660     110695.1655     110695.1649     110695.1644     110695.1641     110695.1639     110695.1638     110695.1639     110695.1640    
      110695.1643     110695.1648     110695.1652     110695.1659     110695.1662    
1
  CONCENTRATION IN LAYER   6 AT END OF TIME STEP   3 IN STRESS PERIOD    1
  ---------------------------------------------------------------------------

                1               2               3               4               5               6               7               8               9              10
               11              12              13              14              15              16              17              18              19              20
               21              22              23              24              25
 ................................................................................................................................................................
   1  110695.1670     110695.0792     110695.1296     110695.1618     110695.1668     110695.1678     110695.1678     110695.1676     110695.1672     110695.1668    
      110695.1664     110695.1660     110695.1654     110695.1648     110695.1643     110695.1640     110695.1638     110695.1637     110695.1638     110695.1640    
      110695.1643     110695.1647     110695.1652     110695.1658     110695.1662    
1
  CONCENTRATION IN LAYER   7 AT END OF TIME STEP   3 IN STRESS PERIOD    1
  ---------------------------------------------------------------------------

                1               2               3               4               5               6               7               8               9              10
               11              12              13              14              15              16              17              18              19              20
               21              22              23              24              25
 ................................................................................................................................................................
   1  110695.1670     110695.1260     110695.1429     110695.1630     110695.1669     110695.1678     110695.1678     110695.1676     110695.1672     110695.1668    
      110695.1665     110695.1661     110695.1655     110695.1649     110695.1644     110695.1641     110695.1639     110695.1638     110695.1638     110695.1640    
      110695.1643     110695.1647     110695.1652     110695.1658     110695.1662    
1
  CONCENTRATION IN LAYER   8 AT END OF TIME STEP   3 IN STRESS PERIOD    1
  ---------------------------------------------------------------------------

                1               2               3               4               5               6               7               8               9              10
               11              12              13              14              15              16              17              18              19              20
               21              22              23              24              25
 ................................................................................................................................................................
   1  110695.1670     110695.1479     110695.1518     110695.1643     110695.1669     110695.1677     110695.1676     110695.1675     110695.1671     110695.1668    
      110695.1665     110695.1661     110695.1655     110695.1650     110695.1645     110695.1642     110695.1641     110695.1640     110695.1640     110695.1641    
      110695.1644     110695.1648     110695.1652     110695.1658     110695.1662    
1
  CONCENTRATION IN LAYER   9 AT END OF TIME STEP   3 IN STRESS PERIOD    1
  ---------------------------------------------------------------------------

                1               2               3               4               5               6               7               8               9              10
               11              12              13              14              15              16              17              18              19              20
               21              22              23              24              25
 ................................................................................................................................................................
   1  110695.1670     110695.1574     110695.1577     110695.1648     110695.1669     110695.1676     110695.1675     110695.1673     110695.1670     110695.1668    
      110695.1665     110695.1662     110695.1656     110695.1651     110695.1647     110695.1645     110695.1643     110695.1642     110695.1643     110695.1644    
      110695.1646     110695.1650     110695.1653     110695.1659     110695.1662    
1
  CONCENTRATION IN LAYER  10 AT END OF TIME STEP   3 IN STRESS PERIOD    1
  ---------------------------------------------------------------------------

                1               2               3               4               5               6               7               8               9              10
               11              12              13              14              15              16              17              18              19              20
               21              22              23              24              25
 ................................................................................................................................................................
   1  110695.1670     110695.1609     110695.1604     110695.1650     110695.1668     110695.1674     110695.1673     110695.1671     110695.1670     110695.1668    
      110695.1666     110695.1662     110695.1658     110695.1653     110695.1650     110695.1648     110695.1646     110695.1646     110695.1646     110695.1646    
      110695.1648     110695.1651     110695.1655     110695.1659     110695.1662    

 CONCENTRATION WILL BE SAVED ON UNIT 1951 AT END OF TIME STEP    3, STRESS PERIOD    1


  MASS BUDGET FOR ENTIRE MODEL AT END OF TIME STEP    3, STRESS PERIOD   1
  ---------------------------------------------------------------------------------------------------

     CUMULATIVE MASS      M       RATES FOR THIS TIME STEP      M/T          PACKAGE NAME    
     ------------------                 ------------------------                     ----------------

           IN:                                      IN:
           ---                                      ---
     STORAGE-AQUEOUS =           3.9023       STORAGE-AQUEOUS =           0.1478     MST                              
                 CHD =      207548.9305                   CHD =        6918.2974     SSM_CHD                          
                 CNC =      484295.8785                   CNC =       16143.2951     CNC                              

            TOTAL IN =      691848.7113              TOTAL IN =       23061.7402

          OUT:                                     OUT:
          ----                                     ----
     STORAGE-AQUEOUS =           3.7715       STORAGE-AQUEOUS =           0.2441     MST                              
                 CHD =      691844.9398                   CHD =       23061.4961     SSM_CHD                          
                 CNC =           0.0000                   CNC =           0.0000     CNC                              

           TOTAL OUT =      691848.7113             TOTAL OUT =       23061.7402

            IN - OUT =       7.1013E-09              IN - OUT =       5.4570E-10

 PERCENT DISCREPANCY =           0.00     PERCENT DISCREPANCY =           0.00




         TIME SUMMARY AT END OF TIME STEP    3 IN STRESS PERIOD    1
                    SECONDS     MINUTES      HOURS       DAYS        YEARS
                    -----------------------------------------------------------
   TIME STEP LENGTH 8.64000E+05  14400.      240.00      10.000     2.73785E-02
 STRESS PERIOD TIME 2.59200E+06  43200.      720.00      30.000     8.21355E-02
         TOTAL TIME 2.59200E+06  43200.      720.00      30.000     8.21355E-02


end timestep


start timestep kper="1" kstp="4" mode="normal"

 UBDSV06 SAVING  SOURCE-SINK MIX IN MODEL H                PACKAGE H               CONNECTED TO MODEL H                PACKAGE SSM              ON UNIT   1950 AT TIME STEP      4, STRESS PERIOD      1
 UBDSV06 SAVING              CNC IN MODEL H                PACKAGE H               CONNECTED TO MODEL H                PACKAGE CNC              ON UNIT   1950 AT TIME STEP      4, STRESS PERIOD      1

 SSM PACKAGE (SSM) FLOW RATES   PERIOD      1   STEP        4
 ------------------------------------------------------------------------------------------------
   NUMBER   CELLID                   BOUND Q        SSM CONC          RATE         PACKAGE NAME  
 ------------------------------------------------------------------------------------------------
     1      (1,1,1)               2.08333321E-02  110692.76       2306.0991            CHD       
     2      (2,1,1)               2.08333321E-02  110692.76       2306.0991            CHD       
     3      (3,1,1)               2.08333321E-02  110692.76       2306.0991            CHD       
     4      (4,1,1)               0.0000000       0.0000000       0.0000000            CHD       
     5      (5,1,1)               0.0000000       0.0000000       0.0000000            CHD       
     6      (6,1,1)               0.0000000       0.0000000       0.0000000            CHD       
     7      (7,1,1)               0.0000000       0.0000000       0.0000000            CHD       
     8      (8,1,1)               0.0000000       0.0000000       0.0000000            CHD       
     9      (9,1,1)               0.0000000       0.0000000       0.0000000            CHD       
     10     (10,1,1)              0.0000000       0.0000000       0.0000000            CHD       
     11     (1,1,25)             -2.08333356E-02  110695.17      -2306.1495            CHD       
     12     (2,1,25)             -2.08333356E-02  110695.17      -2306.1495            CHD       
     13     (3,1,25)             -2.08333356E-02  110695.17      -2306.1495            CHD       
     14     (4,1,25)             -2.08333356E-02  110695.17      -2306.1495            CHD       
     15     (5,1,25)             -2.08333356E-02  110695.17      -2306.1495            CHD       
     16     (6,1,25)             -2.08333356E-02  110695.17      -2306.1495            CHD       
     17     (7,1,25)             -2.08333356E-02  110695.17      -2306.1495            CHD       
     18     (8,1,25)             -2.08333356E-02  110695.17      -2306.1495            CHD       
     19     (9,1,25)             -2.08333356E-02  110695.17      -2306.1495            CHD       
     20     (10,1,25)            -2.08333356E-02  110695.17      -2306.1495            CHD       
 ------------------------------------------------------------------------------------------------




 CNC PACKAGE (CNC) FLOW RATES   PERIOD      1   STEP        4
 -----------------------------------------------
   NUMBER   CELLID                    RATE      
 -----------------------------------------------
     1      (4,1,1)               2306.4971     
     2      (5,1,1)               2306.1526     
     3      (6,1,1)               2306.1510     
     4      (7,1,1)               2306.1501     
     5      (8,1,1)               2306.1496     
     6      (9,1,1)               2306.1494     
     7      (10,1,1)              2306.1493     
 -----------------------------------------------



1
  CONCENTRATION IN LAYER   1 AT END OF TIME STEP   4 IN STRESS PERIOD    1
  ---------------------------------------------------------------------------

                1               2               3               4               5               6               7               8               9              10
               11              12              13              14              15              16              17              18              19              20
               21              22              23              24              25
 ................................................................................................................................................................
   1  110681.5685     110693.1851     110695.1036     110695.1681     110695.1675     110695.1672     110695.1671     110695.1670     110695.1669     110695.1667    
      110695.1665     110695.1662     110695.1658     110695.1654     110695.1651     110695.1650     110695.1648     110695.1647     110695.1648     110695.1648    
      110695.1650     110695.1653     110695.1656     110695.1659     110695.1662    
1
  CONCENTRATION IN LAYER   2 AT END OF TIME STEP   4 IN STRESS PERIOD    1
  ---------------------------------------------------------------------------

                1               2               3               4               5               6               7               8               9              10
               11              12              13              14              15              16              17              18              19              20
               21              22              23              24              25
 ................................................................................................................................................................
   1  110688.6159     110693.4762     110695.1171     110695.1676     110695.1673     110695.1672     110695.1672     110695.1671     110695.1670     110695.1667    
      110695.1664     110695.1661     110695.1657     110695.1653     110695.1650     110695.1647     110695.1646     110695.1645     110695.1645     110695.1647    
      110695.1649     110695.1652     110695.1655     110695.1659     110695.1662    
1
  CONCENTRATION IN LAYER   3 AT END OF TIME STEP   4 IN STRESS PERIOD    1
  ---------------------------------------------------------------------------

                1               2               3               4               5               6               7               8               9              10
               11              12              13              14              15              16              17              18              19              20
               21              22              23              24              25
 ................................................................................................................................................................
   1  110692.6142     110693.9542     110695.1243     110695.1653     110695.1670     110695.1673     110695.1674     110695.1673     110695.1671     110695.1667    
      110695.1663     110695.1659     110695.1655     110695.1651     110695.1647     110695.1644     110695.1642     110695.1642     110695.1642     110695.1644    
      110695.1646     110695.1650     110695.1654     110695.1659     110695.1662    
1
  CONCENTRATION IN LAYER   4 AT END OF TIME STEP   4 IN STRESS PERIOD    1
  ---------------------------------------------------------------------------

                1               2               3               4               5               6               7               8               9              10
               11              12              13              14              15              16              17              18              19              20
               21              22              23              24              25
 ................................................................................................................................................................
   1  110695.1670     110694.5495     110695.0675     110695.1596     110695.1666     110695.1674     110695.1675     110695.1674     110695.1672     110695.1667    
      110695.1662     110695.1658     110695.1653     110695.1649     110695.1644     110695.1641     110695.1639     110695.1638     110695.1639     110695.1641    
      110695.1644     110695.1648     110695.1652     110695.1658     110695.1661    
1
  CONCENTRATION IN LAYER   5 AT END OF TIME STEP   4 IN STRESS PERIOD    1
  ---------------------------------------------------------------------------

                1               2               3               4               5               6               7               8               9              10
               11              12              13              14              15              16              17              18              19              20
               21              22              23              24              25
 ................................................................................................................................................................
   1  110695.1670     110694.8557     110695.0767     110695.1567     110695.1663     110695.1674     110695.1676     110695.1675     110695.1673     110695.1668    
      110695.1662     110695.1658     110695.1653     110695.1648     110695.1643     110695.1639     110695.1637     110695.1636     110695.1637     110695.1639    
      110695.1642     110695.1646     110695.1651     110695.1657     110695.1661    
1
  CONCENTRATION IN LAYER   6 AT END OF TIME STEP   4 IN STRESS PERIOD    1
  ---------------------------------------------------------------------------

                1               2               3               4               5               6               7               8               9              10
               11              12              13              14              15              16              17              18              19              20
               21              22              23              24              25
 ................................................................................................................................................................
   1  110695.1670     110695.0118     110695.1010     110695.1567     110695.1661     110695.1675     110695.1677     110695.1676     110695.1673     110695.1668    
      110695.1662     110695.1658     110695.1653     110695.1647     110695.1642     110695.1639     110695.1636     110695.1635     110695.1636     110695.1638    
      110695.1641     110695.1645     110695.1651     110695.1657     110695.1661    
1
  CONCENTRATION IN LAYER   7 AT END OF TIME STEP   4 IN STRESS PERIOD    1
  ---------------------------------------------------------------------------

                1               2               3               4               5               6               7               8               9              10
               11              12              13              14              15              16              17              18              19              20
               21              22              23              24              25
 ................................................................................................................................................................
   1  110695.1670     110695.0904     110695.1230     110695.1583     110695.1661     110695.1675     110695.1676     110695.1676     110695.1673     110695.1668    
      110695.1663     110695.1658     110695.1653     110695.1648     110695.1643     110695.1639     110695.1637     110695.1636     110695.1636     110695.1638    
      110695.1641     110695.1646     110695.1651     110695.1657     110695.1661    
1
  CONCENTRATION IN LAYER   8 AT END OF TIME STEP   4 IN STRESS PERIOD    1
  ---------------------------------------------------------------------------

                1               2               3               4               5               6               7               8               9              10
               11              12              13              14              15              16              17              18              19              20
               21              22              23              24              25
 ................................................................................................................................................................
   1  110695.1670     110695.1292     110695.1385     110695.1603     110695.1662     110695.1674     110695.1676     110695.1675     110695.1673     110695.1668    
      110695.1663     110695.1659     110695.1654     110695.1649     110695.1644     110695.1640     110695.1638     110695.1637     110695.1638     110695.1639    
      110695.1642     110695.1646     110695.1651     110695.1657     110695.1661    
1
  CONCENTRATION IN LAYER   9 AT END OF TIME STEP   4 IN STRESS PERIOD    1
  ---------------------------------------------------------------------------

                1               2               3               4               5               6               7               8               9              10
               11              12              13              14              15              16              17              18              19              20
               21              22              23              24              25
 ................................................................................................................................................................
   1  110695.1670     110695.1471     110695.1484     110695.1617     110695.1663     110695.1674     110695.1675     110695.1674     110695.1672     110695.1668    
      110695.1664     110695.1659     110695.1655     110695.1650     110695.1646     110695.1643     110695.1640     110695.1639     110695.1640     110695.1641    
      110695.1644     110695.1648     110695.1652     110695.1657     110695.1661    
1
  CONCENTRATION IN LAYER  10 AT END OF TIME STEP   4 IN STRESS PERIOD    1
  ---------------------------------------------------------------------------

                1               2               3               4               5               6               7               8               9              10
               11              12              13              14              15              16              17              18              19              20
               21              22              23              24              25
 ................................................................................................................................................................
   1  110695.1670     110695.1539     110695.1536     110695.1622     110695.1663     110695.1673     110695.1674     110695.1673     110695.1671     110695.1668    
      110695.1665     110695.1661     110695.1656     110695.1652     110695.1648     110695.1645     110695.1643     110695.1642     110695.1642     110695.1643    
      110695.1646     110695.1649     110695.1653     110695.1658     110695.1661    

 CONCENTRATION WILL BE SAVED ON UNIT 1951 AT END OF TIME STEP    4, STRESS PERIOD    1


  MASS BUDGET FOR ENTIRE MODEL AT END OF TIME STEP    4, STRESS PERIOD   1
  ---------------------------------------------------------------------------------------------------

     CUMULATIVE MASS      M       RATES FOR THIS TIME STEP      M/T          PACKAGE NAME    
     ------------------                 ------------------------                     ----------------

           IN:                                      IN:
           ---                                      ---
     STORAGE-AQUEOUS =           6.3210       STORAGE-AQUEOUS =           0.2419     MST                              
                 CHD =      276731.9028                   CHD =        6918.2972     SSM_CHD                          
                 CNC =      645729.8709                   CNC =       16143.3992     CNC                              

            TOTAL IN =      922468.0947              TOTAL IN =       23061.9383

          OUT:                                     OUT:
          ----                                     ----
     STORAGE-AQUEOUS =           8.2000       STORAGE-AQUEOUS =           0.4429     MST                              
                 CHD =      922459.8946                   CHD =       23061.4955     SSM_CHD                          
                 CNC =           0.0000                   CNC =           0.0000     CNC                              

           TOTAL OUT =      922468.0947             TOTAL OUT =       23061.9383

            IN - OUT =       1.1292E-08              IN - OUT =       4.0745E-10

 PERCENT DISCREPANCY =           0.00     PERCENT DISCREPANCY =           0.00




         TIME SUMMARY AT END OF TIME STEP    4 IN STRESS PERIOD    1
                    SECONDS     MINUTES      HOURS       DAYS        YEARS
                    -----------------------------------------------------------
   TIME STEP LENGTH 8.64000E+05  14400.      240.00      10.000     2.73785E-02
 STRESS PERIOD TIME 3.45600E+06  57600.      960.00      40.000     0.10951    
         TOTAL TIME 3.45600E+06  57600.      960.00      40.000     0.10951    


end timestep


start timestep kper="1" kstp="5" mode="normal"

 UBDSV06 SAVING  SOURCE-SINK MIX IN MODEL H                PACKAGE H               CONNECTED TO MODEL H                PACKAGE SSM              ON UNIT   1950 AT TIME STEP      5, STRESS PERIOD      1
 UBDSV06 SAVING              CNC IN MODEL H                PACKAGE H               CONNECTED TO MODEL H                PACKAGE CNC              ON UNIT   1950 AT TIME STEP      5, STRESS PERIOD      1

 SSM PACKAGE (SSM) FLOW RATES   PERIOD      1   STEP        5
 ------------------------------------------------------------------------------------------------
   NUMBER   CELLID                   BOUND Q        SSM CONC          RATE         PACKAGE NAME  
 ------------------------------------------------------------------------------------------------
     1      (1,1,1)               2.08333321E-02  110692.76       2306.0991            CHD       
     2      (2,1,1)               2.08333321E-02  110692.76       2306.0991            CHD       
     3      (3,1,1)               2.08333321E-02  110692.76       2306.0991            CHD       
     4      (4,1,1)               0.0000000       0.0000000       0.0000000            CHD       
     5      (5,1,1)               0.0000000       0.0000000       0.0000000            CHD       
     6      (6,1,1)               0.0000000       0.0000000       0.0000000            CHD       
     7      (7,1,1)               0.0000000       0.0000000       0.0000000            CHD       
     8      (8,1,1)               0.0000000       0.0000000       0.0000000            CHD       
     9      (9,1,1)               0.0000000       0.0000000       0.0000000            CHD       
     10     (10,1,1)              0.0000000       0.0000000       0.0000000            CHD       
     11     (1,1,25)             -2.08333353E-02  110695.17      -2306.1495            CHD       
     12     (2,1,25)             -2.08333353E-02  110695.17      -2306.1495            CHD       
[...]
               21              22              23              24              25
 ................................................................................................................................................................
   1  110695.1670     110695.1351     110695.2703     110695.1541     110694.7542     110694.3241     110693.9366     110693.6457     110693.4527     110693.3279    
      110693.2348     110693.1470     110693.0550     110692.9731     110692.9141     110692.8782     110692.8358     110692.8103     110692.8070     110692.8373    
      110692.9078     110693.0037     110693.1201     110693.2512     110693.3834    

 CONCENTRATION WILL BE SAVED ON UNIT 1951 AT END OF TIME STEP  199, STRESS PERIOD    1


  MASS BUDGET FOR ENTIRE MODEL AT END OF TIME STEP  199, STRESS PERIOD   1
  ---------------------------------------------------------------------------------------------------

     CUMULATIVE MASS      M       RATES FOR THIS TIME STEP      M/T          PACKAGE NAME    
     ------------------                 ------------------------                     ----------------

           IN:                                      IN:
           ---                                      ---
     STORAGE-AQUEOUS =        1737.2010       STORAGE-AQUEOUS =           0.3352     MST                              
                 CHD =    13767411.9197                   CHD =        6918.2975     SSM_CHD                          
                 CNC =    32125467.9935                   CNC =       16143.4336     CNC                              

            TOTAL IN =    45894617.1142              TOTAL IN =       23062.0663

          OUT:                                     OUT:
          ----                                     ----
     STORAGE-AQUEOUS =        2384.8122       STORAGE-AQUEOUS =           0.9444     MST                              
                 CHD =    45892224.8103                   CHD =       23061.1219     SSM_CHD                          
                 CNC =           7.4917                   CNC =           0.0000     CNC                              

           TOTAL OUT =    45894617.1142             TOTAL OUT =       23062.0663

            IN - OUT =       1.4082E-06              IN - OUT =       1.5680E-09

 PERCENT DISCREPANCY =           0.00     PERCENT DISCREPANCY =           0.00




         TIME SUMMARY AT END OF TIME STEP  199 IN STRESS PERIOD    1
                    SECONDS     MINUTES      HOURS       DAYS        YEARS
                    -----------------------------------------------------------
   TIME STEP LENGTH 8.64000E+05  14400.      240.00      10.000     2.73785E-02
 STRESS PERIOD TIME 1.71936E+08 2.86560E+06  47760.      1990.0      5.4483    
         TOTAL TIME 1.71936E+08 2.86560E+06  47760.      1990.0      5.4483    


end timestep


start timestep kper="1" kstp="200" mode="normal"

 UBDSV06 SAVING  SOURCE-SINK MIX IN MODEL H                PACKAGE H               CONNECTED TO MODEL H                PACKAGE SSM              ON UNIT   1950 AT TIME STEP    200, STRESS PERIOD      1
 UBDSV06 SAVING              CNC IN MODEL H                PACKAGE H               CONNECTED TO MODEL H                PACKAGE CNC              ON UNIT   1950 AT TIME STEP    200, STRESS PERIOD      1

 SSM PACKAGE (SSM) FLOW RATES   PERIOD      1   STEP      200
 ------------------------------------------------------------------------------------------------
   NUMBER   CELLID                   BOUND Q        SSM CONC          RATE         PACKAGE NAME  
 ------------------------------------------------------------------------------------------------
     1      (1,1,1)               2.08333330E-02  110692.76       2306.0992            CHD       
     2      (2,1,1)               2.08333330E-02  110692.76       2306.0992            CHD       
     3      (3,1,1)               2.08333330E-02  110692.76       2306.0992            CHD       
     4      (4,1,1)               0.0000000       0.0000000       0.0000000            CHD       
     5      (5,1,1)               0.0000000       0.0000000       0.0000000            CHD       
     6      (6,1,1)               0.0000000       0.0000000       0.0000000            CHD       
     7      (7,1,1)               0.0000000       0.0000000       0.0000000            CHD       
     8      (8,1,1)               0.0000000       0.0000000       0.0000000            CHD       
     9      (9,1,1)               0.0000000       0.0000000       0.0000000            CHD       
     10     (10,1,1)              0.0000000       0.0000000       0.0000000            CHD       
     11     (1,1,25)             -2.08333337E-02  110693.36      -2306.1117            CHD       
     12     (2,1,25)             -2.08333337E-02  110693.36      -2306.1117            CHD       
     13     (3,1,25)             -2.08333337E-02  110693.36      -2306.1117            CHD       
     14     (4,1,25)             -2.08333337E-02  110693.36      -2306.1117            CHD       
     15     (5,1,25)             -2.08333337E-02  110693.36      -2306.1117            CHD       
     16     (6,1,25)             -2.08333337E-02  110693.36      -2306.1117            CHD       
     17     (7,1,25)             -2.08333337E-02  110693.36      -2306.1117            CHD       
     18     (8,1,25)             -2.08333337E-02  110693.36      -2306.1117            CHD       
     19     (9,1,25)             -2.08333337E-02  110693.36      -2306.1117            CHD       
     20     (10,1,25)            -2.08333337E-02  110693.36      -2306.1117            CHD       
 ------------------------------------------------------------------------------------------------




 CNC PACKAGE (CNC) FLOW RATES   PERIOD      1   STEP      200
 -----------------------------------------------
   NUMBER   CELLID                    RATE      
 -----------------------------------------------
     1      (4,1,1)               2306.5096     
     2      (5,1,1)               2306.1609     
     3      (6,1,1)               2306.1569     
     4      (7,1,1)               2306.1541     
     5      (8,1,1)               2306.1521     
     6      (9,1,1)               2306.1507     
     7      (10,1,1)              2306.1502     
 -----------------------------------------------



1
  CONCENTRATION IN LAYER   1 AT END OF TIME STEP 200 IN STRESS PERIOD    1
  ---------------------------------------------------------------------------

                1               2               3               4               5               6               7               8               9              10
               11              12              13              14              15              16              17              18              19              20
               21              22              23              24              25
 ................................................................................................................................................................
   1  110692.1074     110692.0464     110693.2196     110694.6626     110693.3537     110693.1815     110693.2369     110693.3019     110693.2881     110693.2577    
      110693.1822     110693.1274     110693.0597     110692.9828     110692.9208     110692.8828     110692.8402     110692.8130     110692.8088     110692.8323    
      110692.8982     110692.9903     110693.1033     110693.2316     110693.3615    
1
  CONCENTRATION IN LAYER   2 AT END OF TIME STEP 200 IN STRESS PERIOD    1
  ---------------------------------------------------------------------------

                1               2               3               4               5               6               7               8               9              10
               11              12              13              14              15              16              17              18              19              20
               21              22              23              24              25
 ................................................................................................................................................................
   1  110692.0589     110692.3941     110693.3540     110694.4228     110693.5548     110693.3072     110693.3009     110693.3229     110693.2963     110693.2599    
      110693.1871     110693.1291     110693.0600     110692.9829     110692.9208     110692.8829     110692.8404     110692.8131     110692.8089     110692.8323    
      110692.8982     110692.9903     110693.1033     110693.2316     110693.3615    
1
  CONCENTRATION IN LAYER   3 AT END OF TIME STEP 200 IN STRESS PERIOD    1
  ---------------------------------------------------------------------------

                1               2               3               4               5               6               7               8               9              10
               11              12              13              14              15              16              17              18              19              20
               21              22              23              24              25
 ................................................................................................................................................................
   1  110692.3042     110693.0188     110693.5977     110694.1705     110693.8414     110693.5358     110693.4075     110693.3626     110693.3140     110693.2647    
      110693.1956     110693.1323     110693.0608     110692.9830     110692.9208     110692.8833     110692.8406     110692.8132     110692.8089     110692.8323    
      110692.8982     110692.9903     110693.1033     110693.2316     110693.3615    
1
  CONCENTRATION IN LAYER   4 AT END OF TIME STEP 200 IN STRESS PERIOD    1
  ---------------------------------------------------------------------------

                1               2               3               4               5               6               7               8               9              10
               11              12              13              14              15              16              17              18              19              20
               21              22              23              24              25
 ................................................................................................................................................................
   1  110695.1670     110693.7474     110693.9022     110694.3950     110694.1055     110693.7498     110693.5266     110693.4153     110693.3381     110693.2732    
      110693.2055     110693.1363     110693.0620     110692.9833     110692.9209     110692.8838     110692.8410     110692.8134     110692.8090     110692.8323    
      110692.8981     110692.9902     110693.1033     110693.2316     110693.3615    
1
  CONCENTRATION IN LAYER   5 AT END OF TIME STEP 200 IN STRESS PERIOD    1
  ---------------------------------------------------------------------------

                1               2               3               4               5               6               7               8               9              10
               11              12              13              14              15              16              17              18              19              20
               21              22              23              24              25
 ................................................................................................................................................................
   1  110695.1670     110694.2334     110694.2113     110694.3752     110694.2941     110693.9346     110693.6443     110693.4734     110693.3658     110693.2871    
      110693.2142     110693.1406     110693.0634     110692.9837     110692.9210     110692.8844     110692.8415     110692.8137     110692.8091     110692.8323    
      110692.8981     110692.9902     110693.1033     110693.2316     110693.3615    
1
  CONCENTRATION IN LAYER   6 AT END OF TIME STEP 200 IN STRESS PERIOD    1
  ---------------------------------------------------------------------------

                1               2               3               4               5               6               7               8               9              10
               11              12              13              14              15              16              17              18              19              20
               21              22              23              24              25
 ................................................................................................................................................................
   1  110695.1670     110694.5617     110694.5050     110694.5817     110694.4371     110694.0774     110693.7473     110693.5309     110693.3947     110693.3016    
      110693.2228     110693.1448     110693.0648     110692.9842     110692.9211     110692.8851     110692.8420     110692.8139     110692.8093     110692.8323    
      110692.8981     110692.9902     110693.1033     110693.2316     110693.3615    
1
  CONCENTRATION IN LAYER   7 AT END OF TIME STEP 200 IN STRESS PERIOD    1
  ---------------------------------------------------------------------------

                1               2               3               4               5               6               7               8               9              10
               11              12              13              14              15              16              17              18              19              20
               21              22              23              24              25
 ................................................................................................................................................................
   1  110695.1670     110694.7863     110694.7853     110694.8128     110694.5609     110694.1849     110693.8318     110693.5823     110693.4219     110693.3155    
      110693.2310     110693.1489     110693.0658     110692.9847     110692.9213     110692.8858     110692.8425     110692.8142     110692.8094     110692.8323    
      110692.8981     110692.9902     110693.1033     110693.2315     110693.3615    
1
  CONCENTRATION IN LAYER   8 AT END OF TIME STEP 200 IN STRESS PERIOD    1
  ---------------------------------------------------------------------------

                1               2               3               4               5               6               7               8               9              10
               11              12              13              14              15              16              17              18              19              20
               21              22              23              24              25
 ................................................................................................................................................................
   1  110695.1670     110694.9442     110695.3564     110694.9830     110694.6544     110694.2631     110693.8959     110693.6238     110693.4447     110693.3273    
      110693.2377     110693.1530     110693.0662     110692.9850     110692.9215     110692.8864     110692.8429     110692.8144     110692.8095     110692.8323    
      110692.8981     110692.9902     110693.1033     110693.2315     110693.3615    
1
  CONCENTRATION IN LAYER   9 AT END OF TIME STEP 200 IN STRESS PERIOD    1
  ---------------------------------------------------------------------------

                1               2               3               4               5               6               7               8               9              10
               11              12              13              14              15              16              17              18              19              20
               21              22              23              24              25
 ................................................................................................................................................................
   1  110695.1670     110695.0938     110695.2914     110695.0859     110694.7199     110694.3153     110693.9389     110693.6528     110693.4611     110693.3358    
      110693.2425     110693.1561     110693.0663     110692.9852     110692.9216     110692.8868     110692.8433     110692.8146     110692.8096     110692.8324    
      110692.8981     110692.9902     110693.1033     110693.2315     110693.3615    
1
  CONCENTRATION IN LAYER  10 AT END OF TIME STEP 200 IN STRESS PERIOD    1
  ---------------------------------------------------------------------------

                1               2               3               4               5               6               7               8               9              10
               11              12              13              14              15              16              17              18              19              20
               21              22              23              24              25
 ................................................................................................................................................................
   1  110695.1670     110695.1178     110695.2634     110695.1339     110694.7533     110694.3416     110693.9606     110693.6678     110693.4697     110693.3403    
      110693.2451     110693.1578     110693.0663     110692.9853     110692.9217     110692.8871     110692.8434     110692.8147     110692.8097     110692.8324    
      110692.8981     110692.9902     110693.1033     110693.2315     110693.3615    

 CONCENTRATION WILL BE SAVED ON UNIT 1951 AT END OF TIME STEP  200, STRESS PERIOD    1


  MASS BUDGET FOR ENTIRE MODEL AT END OF TIME STEP  200, STRESS PERIOD   1
  ---------------------------------------------------------------------------------------------------

     CUMULATIVE MASS      M       RATES FOR THIS TIME STEP      M/T          PACKAGE NAME    
     ------------------                 ------------------------                     ----------------

           IN:                                      IN:
           ---                                      ---
     STORAGE-AQUEOUS =        1740.4841       STORAGE-AQUEOUS =           0.3283     MST                              
                 CHD =    13836594.8949                   CHD =        6918.2975     SSM_CHD                          
                 CNC =    32286902.3398                   CNC =       16143.4346     CNC                              

            TOTAL IN =    46125237.7187              TOTAL IN =       23062.0604

          OUT:                                     OUT:
          ----                                     ----
     STORAGE-AQUEOUS =        2394.2432       STORAGE-AQUEOUS =           0.9431     MST                              
                 CHD =    46122835.9838                   CHD =       23061.1173     SSM_CHD                          
                 CNC =           7.4917                   CNC =           0.0000     CNC                              

           TOTAL OUT =    46125237.7187             TOTAL OUT =       23062.0604

            IN - OUT =       1.4156E-06              IN - OUT =       1.4916E-09

 PERCENT DISCREPANCY =           0.00     PERCENT DISCREPANCY =           0.00




         TIME SUMMARY AT END OF TIME STEP  200 IN STRESS PERIOD    1
                    SECONDS     MINUTES      HOURS       DAYS        YEARS
                    -----------------------------------------------------------
   TIME STEP LENGTH 8.64000E+05  14400.      240.00      10.000     2.73785E-02
 STRESS PERIOD TIME 1.72800E+08 2.88000E+06  48000.      2000.0      5.4757    
         TOTAL TIME 1.72800E+08 2.88000E+06  48000.      2000.0      5.4757    


end timestep

