                                   MODFLOW 6
                U.S. GEOLOGICAL SURVEY MODULAR HYDROLOGIC MODEL
                       GROUNDWATER TRANSPORT MODEL (GWT)
                VERSION 6.5.0.dev0+prt (preliminary) 10/07/2023
                               ***DEVELOP MODE***

   MODFLOW 6 compiled Oct 07 2023 02:19:02 with Intel(R) Fortran Intel(R) 64
   Compiler Classic for applications running on Intel(R) 64, Version 2021.7.0
                             Build 20220726_000000

This software is preliminary or provisional and is subject to 
revision. It is being provided to meet the need for timely best 
science. The software has not received final approval by the U.S. 
Geological Survey (USGS). No warranty, expressed or implied, is made 
by the USGS or the U.S. Government as to the functionality of the 
software and related material nor shall the fact of release 
constitute any such warranty. The software is provided on the 
condition that neither the USGS nor the U.S. Government shall be held 
liable for any damages resulting from the authorized or unauthorized 
use of the software.


As a work of the United States Government, this USGS product is 
in the public domain within the United States. You can copy, 
modify, distribute, and perform the work, even for commercial 
purposes, all without asking permission. Additionally, USGS 
waives copyright and related rights in the work worldwide 
through CC0 1.0 Universal Public Domain Dedication 
(https://creativecommons.org/publicdomain/zero/1.0/).

The following GNU Lesser General Public License (LGPL) libraries
are used in this USGS product:

    SPARSKIT version 2.0
      ilut, luson, and qsplit 
      (https://www-users.cse.umn.edu/~saad/software/SPARSKIT/)

    RCM - Reverse Cuthill McKee Ordering
      (https://people.math.sc.edu/Burkardt/f_src/rcm/rcm.html)

    BLAS - Basic Linear Algebra Subprograms Level 1
      (https://people.math.sc.edu/Burkardt/f_src/blas1_d/blas1_d.html)

    SPARSEKIT - Sparse Matrix Utility Package
      amux, dperm, dvperm, rperm, and cperm
      (https://people.sc.fsu.edu/~jburkardt/f77_src/sparsekit/sparsekit.html)

The following BSD-3 License libraries are used in this USGS product:

    Modern Fortran DAG Library
      Copyright (c) 2018, Jacob Williams
      All rights reserved.
      (https://github.com/jacobwilliams/daglib)

MODFLOW 6 compiler options: /Isrc\libmf6core.a.p /Isrc /I..\src
/Isrc\libmf6_external.a.p /MTd /nologo /warn:general /warn:truncated_source
/stand:f08 /Zi /traceback /O2 /fpe:0 /heap-arrays:0 /traceback /fpp
/Qdiag-disable:7416 /Qdiag-disable:7025 /Qdiag-disable:5268
/Fdsrc\libmf6core.a.p\Utilities_compilerversion.F90.pdb
/module:src\libmf6core.a.p
/Fosrc/libmf6core.a.p/Utilities_compilerversion.F90.obj /c

System command used to initiate simulation:
c:\Users\portega\anaconda3\envs\mf6rtm\python.exe -m ipykernel_launcher --f=c:\Users\portega\AppData\Roaming\jupyter\runtime\kernel-v2-17404NqyrdJ157y2B.json

MODFLOW was compiled using uniform precision.

Real Variables
  KIND: 8
  TINY (smallest non-zero value):    2.225074-308
  HUGE (largest value):    1.797693+308
  PRECISION: 15
  SIZE IN BITS: 64

Integer Variables
  KIND: 4
  HUGE (largest value): 2147483647
  SIZE IN BITS: 32

Long Integer Variables
  KIND: 8
  HUGE (largest value): 9223372036854775807
  SIZE IN BITS: 64

Logical Variables
  KIND: 4
  SIZE IN BITS: 32
 
 NAMEFILE OPTIONS:
 END NAMEFILE OPTIONS:

 DIS -- STRUCTURED GRID DISCRETIZATION PACKAGE, VERSION 2 : 3/27/2014 - INPUT READ FROM MEMPATH: __INPUT__/H/DIS                                   


 DSP-- DISPERSION PACKAGE, VERSION 1, 1/24/2018 INPUT READ FROM MEMPATH: __INPUT__/H/DSP                                   


 Setting Discretization Options
    Model length unit [0=UND, 1=FEET, 2=METERS, 3=CENTIMETERS] set as 2
 End Setting Discretization Options

 Setting Discretization Dimensions
    NLAY = 10
    NROW = 1
    NCOL = 25
 End Setting Discretization Dimensions

 Setting Discretization Griddata
    DELR set from input file
    DELC set from input file
    TOP set from input file
    BOTM set from input file
    IDOMAIN set from input file
 End Setting Discretization Griddata


 FMI -- FLOW MODEL INTERFACE,' VERSION 2, 8/17/2023
  FLOWS PROVIDED BY A GWF MODEL IN THIS SIMULATION

 ADV-- ADVECTION PACKAGE, VERSION 1, 8/25/2017 INPUT READ FROM UNIT 1062


 # File generated by Flopy version 3.5.0.dev0 on 07/12/2024 at 11:54:47.
 PROCESSING ADVECTION OPTIONS
    ADVECTION WEIGHTING SCHEME HAS BEEN SET TO: TVD
 END OF ADVECTION OPTIONS
 Setting DSP Options
    XT3D formulation [0=INACTIVE, 1=ACTIVE, 3=ACTIVE RHS] set to: 0
 End Setting DSP Options

 Setting DSP Griddata
    ALH set from input file
    ATH1 set from input file
    ATV set from input file
 End Setting DSP Griddata


 CNC   -- CNC PACKAGE, VERSION 8, 2/22/2014 INPUT READ FROM UNIT 1096
 # File generated by Flopy version 3.5.0.dev0 on 07/12/2024 at 11:54:47.

 PROCESSING CNC OPTIONS
    CNC FLOWS WILL BE PRINTED TO LISTING FILE.
    FLOWS WILL BE SAVED TO BUDGET FILE SPECIFIED IN OUTPUT CONTROL
 END OF CNC OPTIONS

 PROCESSING CNC DIMENSIONS
    MAXBOUND =       7
 END OF CNC DIMENSIONS

 IC -- INITIAL CONDITIONS PACKAGE, VERSION 8, 3/28/2015 INPUT READ FROM UNIT 1060
 # File generated by Flopy version 3.5.0.dev0 on 07/12/2024 at 11:54:47.
 PROCESSING GRIDDATA

 OPENED H.ic_strt_layer1.txt
 FILE TYPE:OPEN/CLOSE   UNIT 1938   STATUS:OLD                 
 FORMAT:FORMATTED              ACCESS:SEQUENTIAL          
 ACTION:READ                


 OPENED H.ic_strt_layer2.txt
 FILE TYPE:OPEN/CLOSE   UNIT 1939   STATUS:OLD                 
 FORMAT:FORMATTED              ACCESS:SEQUENTIAL          
 ACTION:READ                


 OPENED H.ic_strt_layer3.txt
 FILE TYPE:OPEN/CLOSE   UNIT 1940   STATUS:OLD                 
 FORMAT:FORMATTED              ACCESS:SEQUENTIAL          
 ACTION:READ                


 OPENED H.ic_strt_layer4.txt
 FILE TYPE:OPEN/CLOSE   UNIT 1941   STATUS:OLD                 
 FORMAT:FORMATTED              ACCESS:SEQUENTIAL          
 ACTION:READ                


 OPENED H.ic_strt_layer5.txt
 FILE TYPE:OPEN/CLOSE   UNIT 1942   STATUS:OLD                 
 FORMAT:FORMATTED              ACCESS:SEQUENTIAL          
 ACTION:READ                


 OPENED H.ic_strt_layer6.txt
 FILE TYPE:OPEN/CLOSE   UNIT 1943   STATUS:OLD                 
 FORMAT:FORMATTED              ACCESS:SEQUENTIAL          
 ACTION:READ                


 OPENED H.ic_strt_layer7.txt
 FILE TYPE:OPEN/CLOSE   UNIT 1944   STATUS:OLD                 
 FORMAT:FORMATTED              ACCESS:SEQUENTIAL          
 ACTION:READ                


 OPENED H.ic_strt_layer8.txt
 FILE TYPE:OPEN/CLOSE   UNIT 1945   STATUS:OLD                 
 FORMAT:FORMATTED              ACCESS:SEQUENTIAL          
 ACTION:READ                


 OPENED H.ic_strt_layer9.txt
 FILE TYPE:OPEN/CLOSE   UNIT 1946   STATUS:OLD                 
 FORMAT:FORMATTED              ACCESS:SEQUENTIAL          
 ACTION:READ                


 OPENED H.ic_strt_layer10.txt
 FILE TYPE:OPEN/CLOSE   UNIT 1947   STATUS:OLD                 
 FORMAT:FORMATTED              ACCESS:SEQUENTIAL          
 ACTION:READ                

 END PROCESSING GRIDDATA

 MST -- MOBILE STORAGE AND TRANSFER PACKAGE, VERSION 1, 7/29/2020 INPUT READ FROM UNIT 1061


 # File generated by Flopy version 3.5.0.dev0 on 07/12/2024 at 11:54:47.
 PROCESSING MOBILE STORAGE AND TRANSFER OPTIONS
 END OF MOBILE STORAGE AND TRANSFER OPTIONS
 PROCESSING GRIDDATA

 OPENED H.mst_porosity.txt
 FILE TYPE:OPEN/CLOSE   UNIT 1948   STATUS:OLD                 
 FORMAT:FORMATTED              ACCESS:SEQUENTIAL          
 ACTION:READ                

 END PROCESSING GRIDDATA

 SSM -- SOURCE-SINK MIXING PACKAGE, VERSION 1, 8/25/2017 INPUT READ FROM UNIT 1094


 # File generated by Flopy version 3.5.0.dev0 on 07/12/2024 at 11:54:47.
 PROCESSING SSM OPTIONS
    SSM FLOW INFORMATION WILL BE PRINTED TO LISTING FILE WHENEVER ICBCFL IS NOT ZERO.
    CELL-BY-CELL FLOW INFORMATION WILL BE SAVED TO BINARY FILE WHENEVER ICBCFL IS NOT ZERO.
 END OF SSM OPTIONS

 OPENED H.ssm_sources.txt
 FILE TYPE:OPEN/CLOSE   UNIT 1949   STATUS:OLD                 
 FORMAT:FORMATTED              ACCESS:SEQUENTIAL          
 ACTION:READ                

 PROCESSING SOURCES
 AUX SOURCE DETECTED.
    USING AUX COLUMN 1 IN PACKAGE CHD
 END PROCESSING SOURCES
 OPTIONAL FILEINPUT BLOCK NOT FOUND.  CONTINUING.
      THE LAST TIME STEP WILL BE PRINTED
      THE LAST TIME STEP WILL BE PRINTED
 # File generated by Flopy version 3.5.0.dev0 on 07/12/2024 at 11:54:47.

 PROCESSING OC OPTIONS

    BUDGET INFORMATION WILL BE WRITTEN TO:
      UNIT NUMBER: 1950
      FILE NAME: H.cbb

 OPENED H.cbb
 FILE TYPE:DATA(BINARY)   UNIT 1950   STATUS:REPLACE             
 FORMAT:UNFORMATTED            ACCESS:STREAM              
 ACTION:READWRITE           

    CONCENTRATION INFORMATION WILL BE WRITTEN TO:
      UNIT NUMBER: 1951
      FILE NAME: H.ucn

 OPENED H.ucn
 FILE TYPE:DATA(BINARY)   UNIT 1951   STATUS:REPLACE             
 FORMAT:UNFORMATTED            ACCESS:STREAM              
 ACTION:READWRITE           

 END OF OC OPTIONS

start timestep kper="1" kstp="1" mode="normal"


 BEGIN READING OUTPUT CONTROL FOR STRESS PERIOD 1
      ALL TIME STEPS WILL BE SAVED
      ALL TIME STEPS WILL BE SAVED
      ALL TIME STEPS WILL BE PRINTED
      ALL TIME STEPS WILL BE PRINTED

 END READING OUTPUT CONTROL FOR STRESS PERIOD 1

 OPENED H.cnc_stress_period_data_1.txt
 FILE TYPE:OPEN/CLOSE   UNIT 2134   STATUS:OLD                 
 FORMAT:FORMATTED              ACCESS:SEQUENTIAL          
 ACTION:READ                

 UBDSV06 SAVING  SOURCE-SINK MIX IN MODEL H                PACKAGE H               CONNECTED TO MODEL H                PACKAGE SSM              ON UNIT   1950 AT TIME STEP      1, STRESS PERIOD      1
 UBDSV06 SAVING              CNC IN MODEL H                PACKAGE H               CONNECTED TO MODEL H                PACKAGE CNC              ON UNIT   1950 AT TIME STEP      1, STRESS PERIOD      1

 SSM PACKAGE (SSM) FLOW RATES   PERIOD      1   STEP        1
 ------------------------------------------------------------------------------------------------
   NUMBER   CELLID                   BOUND Q        SSM CONC          RATE         PACKAGE NAME  
 ------------------------------------------------------------------------------------------------
     1      (1,1,1)               2.08333361E-02  110692.76       2306.0995            CHD       
     2      (2,1,1)               2.08333361E-02  110692.76       2306.0995            CHD       
     3      (3,1,1)               2.08333361E-02  110692.76       2306.0995            CHD       
     4      (4,1,1)               0.0000000       0.0000000       0.0000000            CHD       
     5      (5,1,1)               0.0000000       0.0000000       0.0000000            CHD       
     6      (6,1,1)               0.0000000       0.0000000       0.0000000            CHD       
     7      (7,1,1)               0.0000000       0.0000000       0.0000000            CHD       
     8      (8,1,1)               0.0000000       0.0000000       0.0000000            CHD       
     9      (9,1,1)               0.0000000       0.0000000       0.0000000            CHD       
     10     (10,1,1)              0.0000000       0.0000000       0.0000000            CHD       
     11     (1,1,25)             -2.08333402E-02  110695.17      -2306.1501            CHD       
     12     (2,1,25)             -2.08333402E-02  110695.17      -2306.1501            CHD       
     13     (3,1,25)             -2.08333402E-02  110695.17      -2306.1501            CHD       
     14     (4,1,25)             -2.08333403E-02  110695.17      -2306.1501            CHD       
     15     (5,1,25)             -2.08333403E-02  110695.17      -2306.1501            CHD       
     16     (6,1,25)             -2.08333403E-02  110695.17      -2306.1501            CHD       
     17     (7,1,25)             -2.08333403E-02  110695.17      -2306.1501            CHD       
     18     (8,1,25)             -2.08333403E-02  110695.17      -2306.1501            CHD       
     19     (9,1,25)             -2.08333403E-02  110695.17      -2306.1501            CHD       
     20     (10,1,25)            -2.08333403E-02  110695.17      -2306.1501            CHD       
 ------------------------------------------------------------------------------------------------




 CNC PACKAGE (CNC) FLOW RATES   PERIOD      1   STEP        1
 -----------------------------------------------
   NUMBER   CELLID                    RATE      
 -----------------------------------------------
     1      (4,1,1)               2306.1851     
     2      (5,1,1)               2306.1497     
     3      (6,1,1)               2306.1497     
     4      (7,1,1)               2306.1496     
     5      (8,1,1)               2306.1496     
     6      (9,1,1)               2306.1496     
     7      (10,1,1)              2306.1496     
 -----------------------------------------------



1
  CONCENTRATION IN LAYER   1 AT END OF TIME STEP   1 IN STRESS PERIOD    1
  ---------------------------------------------------------------------------

                1               2               3               4               5               6               7               8               9              10
               11              12              13              14              15              16              17              18              19              20
               21              22              23              24              25
 ................................................................................................................................................................
   1  110693.5003     110694.8781     110695.1393     110695.1644     110695.1668     110695.1669     110695.1666     110695.1663     110695.1665     110695.1669    
      110695.1669     110695.1666     110695.1662     110695.1661     110695.1661     110695.1662     110695.1662     110695.1661     110695.1660     110695.1660    
      110695.1661     110695.1662     110695.1663     110695.1664     110695.1665    
1
  CONCENTRATION IN LAYER   2 AT END OF TIME STEP   1 IN STRESS PERIOD    1
  ---------------------------------------------------------------------------

                1               2               3               4               5               6               7               8               9              10
               11              12              13              14              15              16              17              18              19              20
               21              22              23              24              25
 ................................................................................................................................................................
   1  110693.6547     110694.9139     110695.1422     110695.1649     110695.1672     110695.1672     110695.1666     110695.1661     110695.1666     110695.1672    
      110695.1672     110695.1667     110695.1660     110695.1658     110695.1659     110695.1660     110695.1659     110695.1658     110695.1657     110695.1658    
      110695.1659     110695.1661     110695.1662     110695.1664     110695.1665    
1
  CONCENTRATION IN LAYER   3 AT END OF TIME STEP   1 IN STRESS PERIOD    1
  ---------------------------------------------------------------------------

                1               2               3               4               5               6               7               8               9              10
               11              12              13              14              15              16              17              18              19              20
               21              22              23              24              25
 ................................................................................................................................................................
   1  110694.0902     110694.9896     110695.1473     110695.1658     110695.1679     110695.1677     110695.1665     110695.1658     110695.1666     110695.1678    
      110695.1677     110695.1668     110695.1657     110695.1653     110695.1655     110695.1657     110695.1656     110695.1654     110695.1653     110695.1654    
      110695.1656     110695.1659     110695.1661     110695.1664     110695.1665    
1
  CONCENTRATION IN LAYER   4 AT END OF TIME STEP   1 IN STRESS PERIOD    1
  ---------------------------------------------------------------------------

                1               2               3               4               5               6               7               8               9              10
               11              12              13              14              15              16              17              18              19              20
               21              22              23              24              25
 ................................................................................................................................................................
   1  110695.1670     110695.0961     110695.1519     110695.1665     110695.1685     110695.1681     110695.1663     110695.1655     110695.1667     110695.1683    
      110695.1682     110695.1669     110695.1654     110695.1650     110695.1653     110695.1655     110695.1654     110695.1651     110695.1649     110695.1650    
      110695.1653     110695.1657     110695.1660     110695.1663     110695.1665    
1
  CONCENTRATION IN LAYER   5 AT END OF TIME STEP   1 IN STRESS PERIOD    1
  ---------------------------------------------------------------------------

                1               2               3               4               5               6               7               8               9              10
               11              12              13              14              15              16              17              18              19              20
               21              22              23              24              25
 ................................................................................................................................................................
   1  110695.1670     110695.1388     110695.1576     110695.1671     110695.1688     110695.1682     110695.1662     110695.1653     110695.1667     110695.1686    
      110695.1685     110695.1669     110695.1652     110695.1648     110695.1651     110695.1655     110695.1653     110695.1649     110695.1647     110695.1648    
      110695.1652     110695.1656     110695.1659     110695.1663     110695.1665    
1
  CONCENTRATION IN LAYER   6 AT END OF TIME STEP   1 IN STRESS PERIOD    1
  ---------------------------------------------------------------------------

                1               2               3               4               5               6               7               8               9              10
               11              12              13              14              15              16              17              18              19              20
               21              22              23              24              25
 ................................................................................................................................................................
   1  110695.1670     110695.1558     110695.1617     110695.1675     110695.1689     110695.1683     110695.1661     110695.1652     110695.1667     110695.1687    
      110695.1686     110695.1670     110695.1652     110695.1647     110695.1651     110695.1655     110695.1653     110695.1649     110695.1647     110695.1648    
      110695.1651     110695.1655     110695.1658     110695.1663     110695.1664    
1
  CONCENTRATION IN LAYER   7 AT END OF TIME STEP   1 IN STRESS PERIOD    1
  ---------------------------------------------------------------------------

                1               2               3               4               5               6               7               8               9              10
               11              12              13              14              15              16              17              18              19              20
               21              22              23              24              25
 ................................................................................................................................................................
   1  110695.1670     110695.1632     110695.1634     110695.1676     110695.1688     110695.1682     110695.1661     110695.1653     110695.1667     110695.1686    
      110695.1685     110695.1670     110695.1653     110695.1648     110695.1652     110695.1655     110695.1654     110695.1650     110695.1647     110695.1648    
      110695.1652     110695.1655     110695.1659     110695.1663     110695.1664    
1
  CONCENTRATION IN LAYER   8 AT END OF TIME STEP   1 IN STRESS PERIOD    1
  ---------------------------------------------------------------------------

                1               2               3               4               5               6               7               8               9              10
               11              12              13              14              15              16              17              18              19              20
               21              22              23              24              25
 ................................................................................................................................................................
   1  110695.1670     110695.1658     110695.1646     110695.1677     110695.1686     110695.1680     110695.1661     110695.1654     110695.1667     110695.1684    
      110695.1683     110695.1669     110695.1654     110695.1650     110695.1653     110695.1656     110695.1655     110695.1651     110695.1649     110695.1650    
      110695.1653     110695.1656     110695.1659     110695.1663     110695.1664    
1
  CONCENTRATION IN LAYER   9 AT END OF TIME STEP   1 IN STRESS PERIOD    1
  ---------------------------------------------------------------------------

                1               2               3               4               5               6               7               8               9              10
               11              12              13              14              15              16              17              18              19              20
               21              22              23              24              25
 ................................................................................................................................................................
   1  110695.1670     110695.1665     110695.1655     110695.1676     110695.1682     110695.1677     110695.1661     110695.1656     110695.1667     110695.1680    
      110695.1680     110695.1669     110695.1656     110695.1652     110695.1655     110695.1658     110695.1656     110695.1654     110695.1652     110695.1653    
      110695.1655     110695.1658     110695.1660     110695.1663     110695.1665    
1
  CONCENTRATION IN LAYER  10 AT END OF TIME STEP   1 IN STRESS PERIOD    1
  ---------------------------------------------------------------------------

                1               2               3               4               5               6               7               8               9              10
               11              12              13              14              15              16              17              18              19              20
               21              22              23              24              25
 ................................................................................................................................................................
   1  110695.1670     110695.1664     110695.1659     110695.1671     110695.1675     110695.1672     110695.1663     110695.1660     110695.1666     110695.1674    
      110695.1673     110695.1667     110695.1660     110695.1657     110695.1659     110695.1660     110695.1660     110695.1658     110695.1657     110695.1657    
      110695.1659     110695.1660     110695.1662     110695.1664     110695.1665    

 CONCENTRATION WILL BE SAVED ON UNIT 1951 AT END OF TIME STEP    1, STRESS PERIOD    1


  MASS BUDGET FOR ENTIRE MODEL AT END OF TIME STEP    1, STRESS PERIOD   1
  ---------------------------------------------------------------------------------------------------

     CUMULATIVE MASS      M       RATES FOR THIS TIME STEP      M/T          PACKAGE NAME    
     ------------------                 ------------------------                     ----------------

           IN:                                      IN:
           ---                                      ---
     STORAGE-AQUEOUS =           1.3059       STORAGE-AQUEOUS =           0.1306     MST                              
                 CHD =       69182.9836                   CHD =        6918.2984     SSM_CHD                          
                 CNC =      161430.8301                   CNC =       16143.0830     CNC                              

            TOTAL IN =      230615.1196              TOTAL IN =       23061.5120

          OUT:                                     OUT:
          ----                                     ----
     STORAGE-AQUEOUS =           0.1116       STORAGE-AQUEOUS =       1.1163E-02     MST                              
                 CHD =      230615.0080                   CHD =       23061.5008     SSM_CHD                          
                 CNC =           0.0000                   CNC =           0.0000     CNC                              

           TOTAL OUT =      230615.1196             TOTAL OUT =       23061.5120

            IN - OUT =      -1.6007E-09              IN - OUT =      -1.5643E-10

 PERCENT DISCREPANCY =          -0.00     PERCENT DISCREPANCY =          -0.00




         TIME SUMMARY AT END OF TIME STEP    1 IN STRESS PERIOD    1
                    SECONDS     MINUTES      HOURS       DAYS        YEARS
                    -----------------------------------------------------------
   TIME STEP LENGTH 8.64000E+05  14400.      240.00      10.000     2.73785E-02
 STRESS PERIOD TIME 8.64000E+05  14400.      240.00      10.000     2.73785E-02
         TOTAL TIME 8.64000E+05  14400.      240.00      10.000     2.73785E-02


end timestep


start timestep kper="1" kstp="2" mode="normal"

 UBDSV06 SAVING  SOURCE-SINK MIX IN MODEL H                PACKAGE H               CONNECTED TO MODEL H                PACKAGE SSM              ON UNIT   1950 AT TIME STEP      2, STRESS PERIOD      1
 UBDSV06 SAVING              CNC IN MODEL H                PACKAGE H               CONNECTED TO MODEL H                PACKAGE CNC              ON UNIT   1950 AT TIME STEP      2, STRESS PERIOD      1

 SSM PACKAGE (SSM) FLOW RATES   PERIOD      1   STEP        2
 ------------------------------------------------------------------------------------------------
   NUMBER   CELLID                   BOUND Q        SSM CONC          RATE         PACKAGE NAME  
 ------------------------------------------------------------------------------------------------
     1      (1,1,1)               2.08333319E-02  110692.76       2306.0990            CHD       
     2      (2,1,1)               2.08333319E-02  110692.76       2306.0990            CHD       
     3      (3,1,1)               2.08333319E-02  110692.76       2306.0990            CHD       
     4      (4,1,1)               0.0000000       0.0000000       0.0000000            CHD       
     5      (5,1,1)               0.0000000       0.0000000       0.0000000            CHD       
     6      (6,1,1)               0.0000000       0.0000000       0.0000000            CHD       
     7      (7,1,1)               0.0000000       0.0000000       0.0000000            CHD       
     8      (8,1,1)               0.0000000       0.0000000       0.0000000            CHD       
     9      (9,1,1)               0.0000000       0.0000000       0.0000000            CHD       
     10     (10,1,1)              0.0000000       0.0000000       0.0000000            CHD       
     11     (1,1,25)             -2.08333370E-02  110695.17      -2306.1497            CHD       
     12     (2,1,25)             -2.08333370E-02  110695.17      -2306.1497            CHD       
     13     (3,1,25)             -2.08333370E-02  110695.17      -2306.1497            CHD       
     14     (4,1,25)             -2.08333370E-02  110695.17      -2306.1497            CHD       
     15     (5,1,25)             -2.08333370E-02  110695.17      -2306.1497            CHD       
     16     (6,1,25)             -2.08333370E-02  110695.17      -2306.1497            CHD       
     17     (7,1,25)             -2.08333370E-02  110695.17      -2306.1497            CHD       
     18     (8,1,25)             -2.08333370E-02  110695.17      -2306.1497            CHD       
     19     (9,1,25)             -2.08333370E-02  110695.17      -2306.1497            CHD       
     20     (10,1,25)            -2.08333370E-02  110695.17      -2306.1497            CHD       
 ------------------------------------------------------------------------------------------------




 CNC PACKAGE (CNC) FLOW RATES   PERIOD      1   STEP        2
 -----------------------------------------------
   NUMBER   CELLID                    RATE      
 -----------------------------------------------
     1      (4,1,1)               2306.3135     
     2      (5,1,1)               2306.1500     
     3      (6,1,1)               2306.1495     
     4      (7,1,1)               2306.1493     
     5      (8,1,1)               2306.1492     
     6      (9,1,1)               2306.1492     
     7      (10,1,1)              2306.1492     
 -----------------------------------------------



1
  CONCENTRATION IN LAYER   1 AT END OF TIME STEP   2 IN STRESS PERIOD    1
  ---------------------------------------------------------------------------

                1               2               3               4               5               6               7               8               9              10
               11              12              13              14              15              16              17              18              19              20
               21              22              23              24              25
 ................................................................................................................................................................
   1  110692.3314     110694.4160     110695.1344     110695.1650     110695.1667     110695.1670     110695.1670     110695.1668     110695.1668     110695.1669    
      110695.1667     110695.1665     110695.1662     110695.1660     110695.1659     110695.1658     110695.1657     110695.1656     110695.1656     110695.1657    
      110695.1658     110695.1660     110695.1661     110695.1663     110695.1664    
1
  CONCENTRATION IN LAYER   2 AT END OF TIME STEP   2 IN STRESS PERIOD    1
  ---------------------------------------------------------------------------

                1               2               3               4               5               6               7               8               9              10
               11              12              13              14              15              16              17              18              19              20
               21              22              23              24              25
 ................................................................................................................................................................
   1  110692.6590     110694.5153     110695.1354     110695.1649     110695.1667     110695.1671     110695.1673     110695.1671     110695.1670     110695.1669    
      110695.1666     110695.1664     110695.1661     110695.1659     110695.1657     110695.1655     110695.1654     110695.1653     110695.1654     110695.1654    
      110695.1656     110695.1658     110695.1660     110695.1663     110695.1664    
1
  CONCENTRATION IN LAYER   3 AT END OF TIME STEP   2 IN STRESS PERIOD    1
  ---------------------------------------------------------------------------

                1               2               3               4               5               6               7               8               9              10
               11              12              13              14              15              16              17              18              19              20
               21              22              23              24              25
 ................................................................................................................................................................
   1  110693.4777     110694.7098     110695.1357     110695.1647     110695.1666     110695.1672     110695.1677     110695.1676     110695.1674     110695.1669    
      110695.1664     110695.1662     110695.1660     110695.1657     110695.1654     110695.1651     110695.1649     110695.1649     110695.1649     110695.1651    
      110695.1653     110695.1656     110695.1659     110695.1663     110695.1664    
1
  CONCENTRATION IN LAYER   4 AT END OF TIME STEP   2 IN STRESS PERIOD    1
  ---------------------------------------------------------------------------

                1               2               3               4               5               6               7               8               9              10
               11              12              13              14              15              16              17              18              19              20
               21              22              23              24              25
 ................................................................................................................................................................
   1  110695.1670     110694.9607     110695.1296     110695.1642     110695.1666     110695.1674     110695.1680     110695.1681     110695.1677     110695.1669    
      110695.1663     110695.1661     110695.1659     110695.1656     110695.1652     110695.1647     110695.1645     110695.1645     110695.1646     110695.1648    
      110695.1650     110695.1653     110695.1657     110695.1662     110695.1664    
1
  CONCENTRATION IN LAYER   5 AT END OF TIME STEP   2 IN STRESS PERIOD    1
  ---------------------------------------------------------------------------

                1               2               3               4               5               6               7               8               9              10
               11              12              13              14              15              16              17              18              19              20
               21              22              23              24              25
 ................................................................................................................................................................
   1  110695.1670     110695.0755     110695.1389     110695.1643     110695.1667     110695.1676     110695.1682     110695.1684     110695.1678     110695.1669    
      110695.1662     110695.1661     110695.1659     110695.1656     110695.1650     110695.1645     110695.1643     110695.1643     110695.1644     110695.1646    
      110695.1648     110695.1652     110695.1656     110695.1662     110695.1664    
1
  CONCENTRATION IN LAYER   6 AT END OF TIME STEP   2 IN STRESS PERIOD    1
  ---------------------------------------------------------------------------

                1               2               3               4               5               6               7               8               9              10
               11              12              13              14              15              16              17              18              19              20
               21              22              23              24              25
 ................................................................................................................................................................
   1  110695.1670     110695.1276     110695.1482     110695.1649     110695.1668     110695.1677     110695.1683     110695.1684     110695.1678     110695.1669    
      110695.1662     110695.1661     110695.1659     110695.1656     110695.1650     110695.1645     110695.1642     110695.1642     110695.1643     110695.1645    
      110695.1648     110695.1651     110695.1655     110695.1661     110695.1664    
1
  CONCENTRATION IN LAYER   7 AT END OF TIME STEP   2 IN STRESS PERIOD    1
  ---------------------------------------------------------------------------

                1               2               3               4               5               6               7               8               9              10
               11              12              13              14              15              16              17              18              19              20
               21              22              23              24              25
 ................................................................................................................................................................
   1  110695.1670     110695.1519     110695.1537     110695.1656     110695.1668     110695.1677     110695.1682     110695.1683     110695.1678     110695.1670    
      110695.1663     110695.1661     110695.1659     110695.1656     110695.1651     110695.1646     110695.1643     110695.1643     110695.1644     110695.1646    
      110695.1648     110695.1651     110695.1655     110695.1661     110695.1664    
1
  CONCENTRATION IN LAYER   8 AT END OF TIME STEP   2 IN STRESS PERIOD    1
  ---------------------------------------------------------------------------

                1               2               3               4               5               6               7               8               9              10
               11              12              13              14              15              16              17              18              19              20
               21              22              23              24              25
 ................................................................................................................................................................
   1  110695.1670     110695.1619     110695.1578     110695.1660     110695.1669     110695.1676     110695.1681     110695.1682     110695.1677     110695.1669    
      110695.1663     110695.1662     110695.1660     110695.1657     110695.1652     110695.1647     110695.1645     110695.1645     110695.1645     110695.1647    
      110695.1649     110695.1653     110695.1656     110695.1661     110695.1664    
1
  CONCENTRATION IN LAYER   9 AT END OF TIME STEP   2 IN STRESS PERIOD    1
  ---------------------------------------------------------------------------

                1               2               3               4               5               6               7               8               9              10
               11              12              13              14              15              16              17              18              19              20
               21              22              23              24              25
 ................................................................................................................................................................
   1  110695.1670     110695.1653     110695.1609     110695.1662     110695.1669     110695.1675     110695.1678     110695.1678     110695.1674     110695.1669    
      110695.1664     110695.1662     110695.1660     110695.1657     110695.1654     110695.1650     110695.1648     110695.1648     110695.1648     110695.1650    
      110695.1651     110695.1654     110695.1657     110695.1662     110695.1664    
1
  CONCENTRATION IN LAYER  10 AT END OF TIME STEP   2 IN STRESS PERIOD    1
  ---------------------------------------------------------------------------

                1               2               3               4               5               6               7               8               9              10
               11              12              13              14              15              16              17              18              19              20
               21              22              23              24              25
 ................................................................................................................................................................
   1  110695.1670     110695.1663     110695.1626     110695.1662     110695.1671     110695.1674     110695.1673     110695.1671     110695.1671     110695.1671    
      110695.1668     110695.1665     110695.1661     110695.1658     110695.1656     110695.1654     110695.1653     110695.1652     110695.1652     110695.1653    
      110695.1654     110695.1657     110695.1659     110695.1662     110695.1664    

 CONCENTRATION WILL BE SAVED ON UNIT 1951 AT END OF TIME STEP    2, STRESS PERIOD    1


  MASS BUDGET FOR ENTIRE MODEL AT END OF TIME STEP    2, STRESS PERIOD   1
  ---------------------------------------------------------------------------------------------------

     CUMULATIVE MASS      M       RATES FOR THIS TIME STEP      M/T          PACKAGE NAME    
     ------------------                 ------------------------                     ----------------

           IN:                                      IN:
           ---                                      ---
     STORAGE-AQUEOUS =           2.4271       STORAGE-AQUEOUS =           0.1121     MST                              
                 CHD =      138365.9532                   CHD =        6918.2970     SSM_CHD                          
                 CNC =      322862.9286                   CNC =       16143.2098     CNC                              

            TOTAL IN =      461231.3088              TOTAL IN =       23061.6189

          OUT:                                     OUT:
          ----                                     ----
     STORAGE-AQUEOUS =           1.3301       STORAGE-AQUEOUS =           0.1218     MST                              
                 CHD =      461229.9788                   CHD =       23061.4971     SSM_CHD                          
                 CNC =           0.0000                   CNC =           0.0000     CNC                              

           TOTAL OUT =      461231.3088             TOTAL OUT =       23061.6189

            IN - OUT =       2.9104E-10              IN - OUT =       1.8190E-10

 PERCENT DISCREPANCY =           0.00     PERCENT DISCREPANCY =           0.00




         TIME SUMMARY AT END OF TIME STEP    2 IN STRESS PERIOD    1
                    SECONDS     MINUTES      HOURS       DAYS        YEARS
                    -----------------------------------------------------------
   TIME STEP LENGTH 8.64000E+05  14400.      240.00      10.000     2.73785E-02
 STRESS PERIOD TIME 1.72800E+06  28800.      480.00      20.000     5.47570E-02
         TOTAL TIME 1.72800E+06  28800.      480.00      20.000     5.47570E-02


end timestep


start timestep kper="1" kstp="3" mode="normal"

 UBDSV06 SAVING  SOURCE-SINK MIX IN MODEL H                PACKAGE H               CONNECTED TO MODEL H                PACKAGE SSM              ON UNIT   1950 AT TIME STEP      3, STRESS PERIOD      1
 UBDSV06 SAVING              CNC IN MODEL H                PACKAGE H               CONNECTED TO MODEL H                PACKAGE CNC              ON UNIT   1950 AT TIME STEP      3, STRESS PERIOD      1

 SSM PACKAGE (SSM) FLOW RATES   PERIOD      1   STEP        3
 ------------------------------------------------------------------------------------------------
   NUMBER   CELLID                   BOUND Q        SSM CONC          RATE         PACKAGE NAME  
 ------------------------------------------------------------------------------------------------
     1      (1,1,1)               2.08333325E-02  110692.76       2306.0991            CHD       
     2      (2,1,1)               2.08333325E-02  110692.76       2306.0991            CHD       
     3      (3,1,1)               2.08333325E-02  110692.76       2306.0991            CHD       
     4      (4,1,1)               0.0000000       0.0000000       0.0000000            CHD       
     5      (5,1,1)               0.0000000       0.0000000       0.0000000            CHD       
     6      (6,1,1)               0.0000000       0.0000000       0.0000000            CHD       
     7      (7,1,1)               0.0000000       0.0000000       0.0000000            CHD       
     8      (8,1,1)               0.0000000       0.0000000       0.0000000            CHD       
     9      (9,1,1)               0.0000000       0.0000000       0.0000000            CHD       
     10     (10,1,1)              0.0000000       0.0000000       0.0000000            CHD       
     11     (1,1,25)             -2.08333362E-02  110695.17      -2306.1496            CHD       
     12     (2,1,25)             -2.08333362E-02  110695.17      -2306.1496            CHD       
     13     (3,1,25)             -2.08333362E-02  110695.17      -2306.1496            CHD       
     14     (4,1,25)             -2.08333362E-02  110695.17      -2306.1496            CHD       
     15     (5,1,25)             -2.08333362E-02  110695.17      -2306.1496            CHD       
     16     (6,1,25)             -2.08333362E-02  110695.17      -2306.1496            CHD       
     17     (7,1,25)             -2.08333362E-02  110695.17      -2306.1496            CHD       
     18     (8,1,25)             -2.08333362E-02  110695.17      -2306.1496            CHD       
     19     (9,1,25)             -2.08333362E-02  110695.17      -2306.1496            CHD       
     20     (10,1,25)            -2.08333362E-02  110695.17      -2306.1496            CHD       
 ------------------------------------------------------------------------------------------------




 CNC PACKAGE (CNC) FLOW RATES   PERIOD      1   STEP        3
 -----------------------------------------------
   NUMBER   CELLID                    RATE      
 -----------------------------------------------
     1      (4,1,1)               2306.3960     
     2      (5,1,1)               2306.1511     
     3      (6,1,1)               2306.1502     
     4      (7,1,1)               2306.1497     
     5      (8,1,1)               2306.1494     
     6      (9,1,1)               2306.1493     
     7      (10,1,1)              2306.1493     
 -----------------------------------------------



1
  CONCENTRATION IN LAYER   1 AT END OF TIME STEP   3 IN STRESS PERIOD    1
  ---------------------------------------------------------------------------

                1               2               3               4               5               6               7               8               9              10
               11              12              13              14              15              16              17              18              19              20
               21              22              23              24              25
 ................................................................................................................................................................
   1  110687.9078     110693.9180     110695.1146     110695.1649     110695.1668     110695.1672     110695.1672     110695.1671     110695.1670     110695.1669    
      110695.1667     110695.1664     110695.1661     110695.1658     110695.1656     110695.1654     110695.1653     110695.1653     110695.1653     110695.1653    
      110695.1655     110695.1657     110695.1659     110695.1662     110695.1664    
1
  CONCENTRATION IN LAYER   2 AT END OF TIME STEP   3 IN STRESS PERIOD    1
  ---------------------------------------------------------------------------

                1               2               3               4               5               6               7               8               9              10
               11              12              13              14              15              16              17              18              19              20
               21              22              23              24              25
 ................................................................................................................................................................
   1  110691.9906     110694.0733     110695.1255     110695.1651     110695.1668     110695.1673     110695.1674     110695.1672     110695.1670     110695.1669    
      110695.1667     110695.1664     110695.1660     110695.1656     110695.1654     110695.1652     110695.1651     110695.1650     110695.1650     110695.1651    
      110695.1653     110695.1656     110695.1659     110695.1662     110695.1664    
1
  CONCENTRATION IN LAYER   3 AT END OF TIME STEP   3 IN STRESS PERIOD    1
  ---------------------------------------------------------------------------

                1               2               3               4               5               6               7               8               9              10
               11              12              13              14              15              16              17              18              19              20
               21              22              23              24              25
 ................................................................................................................................................................
   1  110693.0892     110694.3746     110695.1352     110695.1645     110695.1669     110695.1676     110695.1676     110695.1674     110695.1671     110695.1669    
      110695.1666     110695.1663     110695.1658     110695.1654     110695.1650     110695.1648     110695.1647     110695.1646     110695.1646     110695.1648    
      110695.1650     110695.1653     110695.1657     110695.1662     110695.1664    
1
  CONCENTRATION IN LAYER   4 AT END OF TIME STEP   3 IN STRESS PERIOD    1
  ---------------------------------------------------------------------------

                1               2               3               4               5               6               7               8               9              10
               11              12              13              14              15              16              17              18              19              20
               21              22              23              24              25
 ................................................................................................................................................................
   1  110695.1670     110694.7806     110695.1043     110695.1620     110695.1669     110695.1678     110695.1678     110695.1676     110695.1672     110695.1669    
      110695.1666     110695.1662     110695.1657     110695.1652     110695.1647     110695.1645     110695.1643     110695.1643     110695.1643     110695.1644    
      110695.1647     110695.1651     110695.1655     110695.1661     110695.1664    
1
  CONCENTRATION IN LAYER   5 AT END OF TIME STEP   3 IN STRESS PERIOD    1
  ---------------------------------------------------------------------------

                1               2               3               4               5               6               7               8               9              10
               11              12              13              14              15              16              17              18              19              20
               21              22              23              24              25
 ................................................................................................................................................................
   1  110695.1670     110694.9816     110695.1130     110695.1611     110695.1669     110695.1679     110695.1680     110695.1677     110695.1673     110695.1670    
      110695.1666     110695.1662     110695.1656     110695.1651     110695.1646     110695.1643     110695.1641     110695.1640     110695.1641     110695.1642    
      110695.1645     110695.1650     110695.1654     110695.1661     110695.1664    
1
  CONCENTRATION IN LAYER   6 AT END OF TIME STEP   3 IN STRESS PERIOD    1
  ---------------------------------------------------------------------------

                1               2               3               4               5               6               7               8               9              10
               11              12              13              14              15              16              17              18              19              20
               21              22              23              24              25
 ................................................................................................................................................................
   1  110695.1670     110695.0802     110695.1282     110695.1617     110695.1669     110695.1680     110695.1680     110695.1678     110695.1674     110695.1670    
      110695.1666     110695.1662     110695.1656     110695.1650     110695.1645     110695.1642     110695.1640     110695.1639     110695.1640     110695.1642    
      110695.1645     110695.1649     110695.1654     110695.1660     110695.1664    
1
  CONCENTRATION IN LAYER   7 AT END OF TIME STEP   3 IN STRESS PERIOD    1
  ---------------------------------------------------------------------------

                1               2               3               4               5               6               7               8               9              10
               11              12              13              14              15              16              17              18              19              20
               21              22              23              24              25
 ................................................................................................................................................................
   1  110695.1670     110695.1288     110695.1398     110695.1628     110695.1670     110695.1680     110695.1680     110695.1678     110695.1674     110695.1670    
      110695.1666     110695.1663     110695.1657     110695.1651     110695.1646     110695.1643     110695.1641     110695.1640     110695.1640     110695.1642    
      110695.1645     110695.1649     110695.1654     110695.1660     110695.1664    
1
  CONCENTRATION IN LAYER   8 AT END OF TIME STEP   3 IN STRESS PERIOD    1
  ---------------------------------------------------------------------------

                1               2               3               4               5               6               7               8               9              10
               11              12              13              14              15              16              17              18              19              20
               21              22              23              24              25
 ................................................................................................................................................................
   1  110695.1670     110695.1509     110695.1487     110695.1638     110695.1671     110695.1679     110695.1678     110695.1677     110695.1673     110695.1670    
      110695.1667     110695.1663     110695.1657     110695.1652     110695.1647     110695.1644     110695.1643     110695.1642     110695.1642     110695.1643    
      110695.1646     110695.1650     110695.1654     110695.1660     110695.1664    
1
  CONCENTRATION IN LAYER   9 AT END OF TIME STEP   3 IN STRESS PERIOD    1
  ---------------------------------------------------------------------------

                1               2               3               4               5               6               7               8               9              10
               11              12              13              14              15              16              17              18              19              20
               21              22              23              24              25
 ................................................................................................................................................................
   1  110695.1670     110695.1604     110695.1545     110695.1644     110695.1671     110695.1678     110695.1677     110695.1675     110695.1672     110695.1670    
      110695.1667     110695.1664     110695.1658     110695.1653     110695.1649     110695.1647     110695.1645     110695.1644     110695.1645     110695.1646    
      110695.1648     110695.1652     110695.1655     110695.1661     110695.1664    
1
  CONCENTRATION IN LAYER  10 AT END OF TIME STEP   3 IN STRESS PERIOD    1
  ---------------------------------------------------------------------------

                1               2               3               4               5               6               7               8               9              10
               11              12              13              14              15              16              17              18              19              20
               21              22              23              24              25
 ................................................................................................................................................................
   1  110695.1670     110695.1635     110695.1579     110695.1643     110695.1670     110695.1676     110695.1675     110695.1673     110695.1672     110695.1670    
      110695.1668     110695.1664     110695.1660     110695.1655     110695.1652     110695.1650     110695.1648     110695.1647     110695.1647     110695.1648    
      110695.1650     110695.1653     110695.1657     110695.1661     110695.1664    

 CONCENTRATION WILL BE SAVED ON UNIT 1951 AT END OF TIME STEP    3, STRESS PERIOD    1


  MASS BUDGET FOR ENTIRE MODEL AT END OF TIME STEP    3, STRESS PERIOD   1
  ---------------------------------------------------------------------------------------------------

     CUMULATIVE MASS      M       RATES FOR THIS TIME STEP      M/T          PACKAGE NAME    
     ------------------                 ------------------------                     ----------------

           IN:                                      IN:
           ---                                      ---
     STORAGE-AQUEOUS =           3.9066       STORAGE-AQUEOUS =           0.1480     MST                              
                 CHD =      207548.9249                   CHD =        6918.2972     SSM_CHD                          
                 CNC =      484295.8795                   CNC =       16143.2951     CNC                              

            TOTAL IN =      691848.7110              TOTAL IN =       23061.7402

          OUT:                                     OUT:
          ----                                     ----
     STORAGE-AQUEOUS =           3.7703       STORAGE-AQUEOUS =           0.2440     MST                              
                 CHD =      691844.9406                   CHD =       23061.4962     SSM_CHD                          
                 CNC =           0.0000                   CNC =           0.0000     CNC                              

           TOTAL OUT =      691848.7110             TOTAL OUT =       23061.7402

            IN - OUT =       4.8894E-09              IN - OUT =       4.6930E-10

 PERCENT DISCREPANCY =           0.00     PERCENT DISCREPANCY =           0.00




         TIME SUMMARY AT END OF TIME STEP    3 IN STRESS PERIOD    1
                    SECONDS     MINUTES      HOURS       DAYS        YEARS
                    -----------------------------------------------------------
   TIME STEP LENGTH 8.64000E+05  14400.      240.00      10.000     2.73785E-02
 STRESS PERIOD TIME 2.59200E+06  43200.      720.00      30.000     8.21355E-02
         TOTAL TIME 2.59200E+06  43200.      720.00      30.000     8.21355E-02


end timestep


start timestep kper="1" kstp="4" mode="normal"

 UBDSV06 SAVING  SOURCE-SINK MIX IN MODEL H                PACKAGE H               CONNECTED TO MODEL H                PACKAGE SSM              ON UNIT   1950 AT TIME STEP      4, STRESS PERIOD      1
 UBDSV06 SAVING              CNC IN MODEL H                PACKAGE H               CONNECTED TO MODEL H                PACKAGE CNC              ON UNIT   1950 AT TIME STEP      4, STRESS PERIOD      1

 SSM PACKAGE (SSM) FLOW RATES   PERIOD      1   STEP        4
 ------------------------------------------------------------------------------------------------
   NUMBER   CELLID                   BOUND Q        SSM CONC          RATE         PACKAGE NAME  
 ------------------------------------------------------------------------------------------------
     1      (1,1,1)               2.08333321E-02  110692.76       2306.0990            CHD       
     2      (2,1,1)               2.08333321E-02  110692.76       2306.0990            CHD       
     3      (3,1,1)               2.08333321E-02  110692.76       2306.0990            CHD       
     4      (4,1,1)               0.0000000       0.0000000       0.0000000            CHD       
     5      (5,1,1)               0.0000000       0.0000000       0.0000000            CHD       
     6      (6,1,1)               0.0000000       0.0000000       0.0000000            CHD       
     7      (7,1,1)               0.0000000       0.0000000       0.0000000            CHD       
     8      (8,1,1)               0.0000000       0.0000000       0.0000000            CHD       
     9      (9,1,1)               0.0000000       0.0000000       0.0000000            CHD       
     10     (10,1,1)              0.0000000       0.0000000       0.0000000            CHD       
     11     (1,1,25)             -2.08333356E-02  110695.17      -2306.1496            CHD       
     12     (2,1,25)             -2.08333356E-02  110695.17      -2306.1496            CHD       
     13     (3,1,25)             -2.08333356E-02  110695.17      -2306.1496            CHD       
     14     (4,1,25)             -2.08333356E-02  110695.17      -2306.1496            CHD       
     15     (5,1,25)             -2.08333356E-02  110695.17      -2306.1496            CHD       
     16     (6,1,25)             -2.08333356E-02  110695.17      -2306.1496            CHD       
     17     (7,1,25)             -2.08333356E-02  110695.17      -2306.1496            CHD       
     18     (8,1,25)             -2.08333356E-02  110695.17      -2306.1496            CHD       
     19     (9,1,25)             -2.08333356E-02  110695.17      -2306.1496            CHD       
     20     (10,1,25)            -2.08333356E-02  110695.17      -2306.1496            CHD       
 ------------------------------------------------------------------------------------------------




 CNC PACKAGE (CNC) FLOW RATES   PERIOD      1   STEP        4
 -----------------------------------------------
   NUMBER   CELLID                    RATE      
 -----------------------------------------------
     1      (4,1,1)               2306.5042     
     2      (5,1,1)               2306.1526     
     3      (6,1,1)               2306.1510     
     4      (7,1,1)               2306.1501     
     5      (8,1,1)               2306.1496     
     6      (9,1,1)               2306.1494     
     7      (10,1,1)              2306.1493     
 -----------------------------------------------



1
  CONCENTRATION IN LAYER   1 AT END OF TIME STEP   4 IN STRESS PERIOD    1
  ---------------------------------------------------------------------------

                1               2               3               4               5               6               7               8               9              10
               11              12              13              14              15              16              17              18              19              20
               21              22              23              24              25
 ................................................................................................................................................................
   1  110681.0813     110693.1501     110695.1036     110695.1685     110695.1677     110695.1674     110695.1673     110695.1672     110695.1671     110695.1669    
      110695.1667     110695.1664     110695.1660     110695.1656     110695.1653     110695.1651     110695.1650     110695.1649     110695.1650     110695.1650    
      110695.1652     110695.1655     110695.1658     110695.1661     110695.1664    
1
  CONCENTRATION IN LAYER   2 AT END OF TIME STEP   4 IN STRESS PERIOD    1
  ---------------------------------------------------------------------------

                1               2               3               4               5               6               7               8               9              10
               11              12              13              14              15              16              17              18              19              20
               21              22              23              24              25
 ................................................................................................................................................................
   1  110688.1324     110693.4528     110695.1174     110695.1680     110695.1676     110695.1674     110695.1674     110695.1673     110695.1671     110695.1669    
      110695.1666     110695.1663     110695.1659     110695.1655     110695.1652     110695.1649     110695.1648     110695.1647     110695.1647     110695.1649    
      110695.1651     110695.1654     110695.1657     110695.1661     110695.1664    
1
  CONCENTRATION IN LAYER   3 AT END OF TIME STEP   4 IN STRESS PERIOD    1
  ---------------------------------------------------------------------------

                1               2               3               4               5               6               7               8               9              10
               11              12              13              14              15              16              17              18              19              20
               21              22              23              24              25
 ................................................................................................................................................................
   1  110692.5802     110693.9406     110695.1251     110695.1656     110695.1672     110695.1675     110695.1676     110695.1675     110695.1673     110695.1669    
      110695.1665     110695.1661     110695.1657     110695.1653     110695.1649     110695.1646     110695.1644     110695.1644     110695.1644     110695.1646    
      110695.1648     110695.1652     110695.1656     110695.1661     110695.1664    
1
  CONCENTRATION IN LAYER   4 AT END OF TIME STEP   4 IN STRESS PERIOD    1
  ---------------------------------------------------------------------------

                1               2               3               4               5               6               7               8               9              10
               11              12              13              14              15              16              17              18              19              20
               21              22              23              24              25
 ................................................................................................................................................................
   1  110695.1670     110694.5439     110695.0673     110695.1598     110695.1668     110695.1676     110695.1677     110695.1676     110695.1674     110695.1669    
      110695.1664     110695.1660     110695.1655     110695.1651     110695.1646     110695.1643     110695.1641     110695.1640     110695.1641     110695.1643    
      110695.1646     110695.1650     110695.1654     110695.1660     110695.1663    
1
  CONCENTRATION IN LAYER   5 AT END OF TIME STEP   4 IN STRESS PERIOD    1
  ---------------------------------------------------------------------------

                1               2               3               4               5               6               7               8               9              10
               11              12              13              14              15              16              17              18              19              20
               21              22              23              24              25
 ................................................................................................................................................................
   1  110695.1670     110694.8538     110695.0758     110695.1567     110695.1664     110695.1676     110695.1678     110695.1677     110695.1675     110695.1670    
      110695.1664     110695.1660     110695.1655     110695.1650     110695.1645     110695.1641     110695.1639     110695.1638     110695.1639     110695.1641    
      110695.1644     110695.1648     110695.1653     110695.1659     110695.1663    
1
  CONCENTRATION IN LAYER   6 AT END OF TIME STEP   4 IN STRESS PERIOD    1
  ---------------------------------------------------------------------------

                1               2               3               4               5               6               7               8               9              10
               11              12              13              14              15              16              17              18              19              20
               21              22              23              24              25
 ................................................................................................................................................................
   1  110695.1670     110695.0122     110695.0991     110695.1565     110695.1662     110695.1677     110695.1679     110695.1678     110695.1675     110695.1670    
      110695.1664     110695.1660     110695.1654     110695.1649     110695.1644     110695.1640     110695.1638     110695.1637     110695.1638     110695.1640    
      110695.1643     110695.1647     110695.1652     110695.1659     110695.1663    
1
  CONCENTRATION IN LAYER   7 AT END OF TIME STEP   4 IN STRESS PERIOD    1
  ---------------------------------------------------------------------------

                1               2               3               4               5               6               7               8               9              10
               11              12              13              14              15              16              17              18              19              20
               21              22              23              24              25
 ................................................................................................................................................................
   1  110695.1670     110695.0932     110695.1192     110695.1580     110695.1662     110695.1676     110695.1678     110695.1677     110695.1675     110695.1670    
      110695.1665     110695.1660     110695.1655     110695.1650     110695.1645     110695.1641     110695.1639     110695.1638     110695.1638     110695.1640    
      110695.1643     110695.1648     110695.1652     110695.1659     110695.1663    
1
  CONCENTRATION IN LAYER   8 AT END OF TIME STEP   4 IN STRESS PERIOD    1
  ---------------------------------------------------------------------------

                1               2               3               4               5               6               7               8               9              10
               11              12              13              14              15              16              17              18              19              20
               21              22              23              24              25
 ................................................................................................................................................................
   1  110695.1670     110695.1325     110695.1345     110695.1599     110695.1662     110695.1676     110695.1677     110695.1677     110695.1675     110695.1670    
      110695.1665     110695.1661     110695.1656     110695.1651     110695.1646     110695.1642     110695.1640     110695.1639     110695.1640     110695.1641    
      110695.1644     110695.1648     110695.1653     110695.1659     110695.1663    
1
  CONCENTRATION IN LAYER   9 AT END OF TIME STEP   4 IN STRESS PERIOD    1
  ---------------------------------------------------------------------------

                1               2               3               4               5               6               7               8               9              10
               11              12              13              14              15              16              17              18              19              20
               21              22              23              24              25
 ................................................................................................................................................................
   1  110695.1670     110695.1500     110695.1458     110695.1605     110695.1662     110695.1675     110695.1676     110695.1676     110695.1674     110695.1670    
      110695.1666     110695.1661     110695.1657     110695.1652     110695.1648     110695.1645     110695.1642     110695.1641     110695.1642     110695.1643    
      110695.1646     110695.1650     110695.1654     110695.1659     110695.1663    
1
  CONCENTRATION IN LAYER  10 AT END OF TIME STEP   4 IN STRESS PERIOD    1
  ---------------------------------------------------------------------------

                1               2               3               4               5               6               7               8               9              10
               11              12              13              14              15              16              17              18              19              20
               21              22              23              24              25
 ................................................................................................................................................................
   1  110695.1670     110695.1564     110695.1520     110695.1604     110695.1662     110695.1675     110695.1676     110695.1675     110695.1673     110695.1670    
      110695.1667     110695.1663     110695.1658     110695.1654     110695.1650     110695.1647     110695.1645     110695.1644     110695.1644     110695.1645    
      110695.1648     110695.1651     110695.1655     110695.1660     110695.1663    

 CONCENTRATION WILL BE SAVED ON UNIT 1951 AT END OF TIME STEP    4, STRESS PERIOD    1


  MASS BUDGET FOR ENTIRE MODEL AT END OF TIME STEP    4, STRESS PERIOD   1
  ---------------------------------------------------------------------------------------------------

     CUMULATIVE MASS      M       RATES FOR THIS TIME STEP      M/T          PACKAGE NAME    
     ------------------                 ------------------------                     ----------------

           IN:                                      IN:
           ---                                      ---
     STORAGE-AQUEOUS =           6.4378       STORAGE-AQUEOUS =           0.2531     MST                              
                 CHD =      276731.8953                   CHD =        6918.2970     SSM_CHD                          
                 CNC =      645729.9417                   CNC =       16143.4062     CNC                              

            TOTAL IN =      922468.2748              TOTAL IN =       23061.9564

          OUT:                                     OUT:
          ----                                     ----
     STORAGE-AQUEOUS =           8.3789       STORAGE-AQUEOUS =           0.4609     MST                              
                 CHD =      922459.8959                   CHD =       23061.4955     SSM_CHD                          
                 CNC =           0.0000                   CNC =           0.0000     CNC                              

           TOTAL OUT =      922468.2748             TOTAL OUT =       23061.9564

            IN - OUT =       1.1874E-08              IN - OUT =       6.9485E-10

 PERCENT DISCREPANCY =           0.00     PERCENT DISCREPANCY =           0.00




         TIME SUMMARY AT END OF TIME STEP    4 IN STRESS PERIOD    1
                    SECONDS     MINUTES      HOURS       DAYS        YEARS
                    -----------------------------------------------------------
   TIME STEP LENGTH 8.64000E+05  14400.      240.00      10.000     2.73785E-02
 STRESS PERIOD TIME 3.45600E+06  57600.      960.00      40.000     0.10951    
         TOTAL TIME 3.45600E+06  57600.      960.00      40.000     0.10951    


end timestep


start timestep kper="1" kstp="5" mode="normal"

 UBDSV06 SAVING  SOURCE-SINK MIX IN MODEL H                PACKAGE H               CONNECTED TO MODEL H                PACKAGE SSM              ON UNIT   1950 AT TIME STEP      5, STRESS PERIOD      1
 UBDSV06 SAVING              CNC IN MODEL H                PACKAGE H               CONNECTED TO MODEL H                PACKAGE CNC              ON UNIT   1950 AT TIME STEP      5, STRESS PERIOD      1

 SSM PACKAGE (SSM) FLOW RATES   PERIOD      1   STEP        5
 ------------------------------------------------------------------------------------------------
   NUMBER   CELLID                   BOUND Q        SSM CONC          RATE         PACKAGE NAME  
 ------------------------------------------------------------------------------------------------
     1      (1,1,1)               2.08333321E-02  110692.76       2306.0990            CHD       
     2      (2,1,1)               2.08333321E-02  110692.76       2306.0990            CHD       
     3      (3,1,1)               2.08333321E-02  110692.76       2306.0990            CHD       
     4      (4,1,1)               0.0000000       0.0000000       0.0000000            CHD       
     5      (5,1,1)               0.0000000       0.0000000       0.0000000            CHD       
     6      (6,1,1)               0.0000000       0.0000000       0.0000000            CHD       
     7      (7,1,1)               0.0000000       0.0000000       0.0000000            CHD       
     8      (8,1,1)               0.0000000       0.0000000       0.0000000            CHD       
     9      (9,1,1)               0.0000000       0.0000000       0.0000000            CHD       
     10     (10,1,1)              0.0000000       0.0000000       0.0000000            CHD       
     11     (1,1,25)             -2.08333353E-02  110695.17      -2306.1495            CHD       
     12     (2,1,25)             -2.08333353E-02  110695.17      -2306.1495            CHD       
[...]
               21              22              23              24              25
 ................................................................................................................................................................
   1  110695.1670     110695.1050     110695.3319     110695.1987     110694.8145     110694.3993     110694.0067     110693.6967     110693.4820     110693.3370    
      110693.2275     110693.1268     110693.0221     110692.9274     110692.8403     110692.8032     110692.7488     110692.7080     110692.6969     110692.7035    
      110692.7668     110692.8626     110692.9848     110693.1260     110693.2706    

 CONCENTRATION WILL BE SAVED ON UNIT 1951 AT END OF TIME STEP  199, STRESS PERIOD    1


  MASS BUDGET FOR ENTIRE MODEL AT END OF TIME STEP  199, STRESS PERIOD   1
  ---------------------------------------------------------------------------------------------------

     CUMULATIVE MASS      M       RATES FOR THIS TIME STEP      M/T          PACKAGE NAME    
     ------------------                 ------------------------                     ----------------

           IN:                                      IN:
           ---                                      ---
     STORAGE-AQUEOUS =        1825.6951       STORAGE-AQUEOUS =           0.3235     MST                              
                 CHD =    13767411.5466                   CHD =        6918.2973     SSM_CHD                          
                 CNC =    32125463.4303                   CNC =       16143.4366     CNC                              

            TOTAL IN =    45894700.6720              TOTAL IN =       23062.0574

          OUT:                                     OUT:
          ----                                     ----
     STORAGE-AQUEOUS =        2474.9062       STORAGE-AQUEOUS =           0.9590     MST                              
                 CHD =    45892218.5688                   CHD =       23061.0984     SSM_CHD                          
                 CNC =           7.1970                   CNC =           0.0000     CNC                              

           TOTAL OUT =    45894700.6720             TOTAL OUT =       23062.0574

            IN - OUT =       1.6764E-06              IN - OUT =       3.3469E-09

 PERCENT DISCREPANCY =           0.00     PERCENT DISCREPANCY =           0.00




         TIME SUMMARY AT END OF TIME STEP  199 IN STRESS PERIOD    1
                    SECONDS     MINUTES      HOURS       DAYS        YEARS
                    -----------------------------------------------------------
   TIME STEP LENGTH 8.64000E+05  14400.      240.00      10.000     2.73785E-02
 STRESS PERIOD TIME 1.71936E+08 2.86560E+06  47760.      1990.0      5.4483    
         TOTAL TIME 1.71936E+08 2.86560E+06  47760.      1990.0      5.4483    


end timestep


start timestep kper="1" kstp="200" mode="normal"

 UBDSV06 SAVING  SOURCE-SINK MIX IN MODEL H                PACKAGE H               CONNECTED TO MODEL H                PACKAGE SSM              ON UNIT   1950 AT TIME STEP    200, STRESS PERIOD      1
 UBDSV06 SAVING              CNC IN MODEL H                PACKAGE H               CONNECTED TO MODEL H                PACKAGE CNC              ON UNIT   1950 AT TIME STEP    200, STRESS PERIOD      1

 SSM PACKAGE (SSM) FLOW RATES   PERIOD      1   STEP      200
 ------------------------------------------------------------------------------------------------
   NUMBER   CELLID                   BOUND Q        SSM CONC          RATE         PACKAGE NAME  
 ------------------------------------------------------------------------------------------------
     1      (1,1,1)               2.08333330E-02  110692.76       2306.0991            CHD       
     2      (2,1,1)               2.08333330E-02  110692.76       2306.0991            CHD       
     3      (3,1,1)               2.08333330E-02  110692.76       2306.0991            CHD       
     4      (4,1,1)               0.0000000       0.0000000       0.0000000            CHD       
     5      (5,1,1)               0.0000000       0.0000000       0.0000000            CHD       
     6      (6,1,1)               0.0000000       0.0000000       0.0000000            CHD       
     7      (7,1,1)               0.0000000       0.0000000       0.0000000            CHD       
     8      (8,1,1)               0.0000000       0.0000000       0.0000000            CHD       
     9      (9,1,1)               0.0000000       0.0000000       0.0000000            CHD       
     10     (10,1,1)              0.0000000       0.0000000       0.0000000            CHD       
     11     (1,1,25)             -2.08333337E-02  110693.25      -2306.1093            CHD       
     12     (2,1,25)             -2.08333337E-02  110693.25      -2306.1093            CHD       
     13     (3,1,25)             -2.08333337E-02  110693.25      -2306.1093            CHD       
     14     (4,1,25)             -2.08333337E-02  110693.25      -2306.1093            CHD       
     15     (5,1,25)             -2.08333337E-02  110693.25      -2306.1093            CHD       
     16     (6,1,25)             -2.08333337E-02  110693.25      -2306.1093            CHD       
     17     (7,1,25)             -2.08333337E-02  110693.25      -2306.1093            CHD       
     18     (8,1,25)             -2.08333337E-02  110693.25      -2306.1093            CHD       
     19     (9,1,25)             -2.08333337E-02  110693.25      -2306.1093            CHD       
     20     (10,1,25)            -2.08333337E-02  110693.25      -2306.1093            CHD       
 ------------------------------------------------------------------------------------------------




 CNC PACKAGE (CNC) FLOW RATES   PERIOD      1   STEP      200
 -----------------------------------------------
   NUMBER   CELLID                    RATE      
 -----------------------------------------------
     1      (4,1,1)               2306.5112     
     2      (5,1,1)               2306.1611     
     3      (6,1,1)               2306.1571     
     4      (7,1,1)               2306.1543     
     5      (8,1,1)               2306.1523     
     6      (9,1,1)               2306.1510     
     7      (10,1,1)              2306.1504     
 -----------------------------------------------



1
  CONCENTRATION IN LAYER   1 AT END OF TIME STEP 200 IN STRESS PERIOD    1
  ---------------------------------------------------------------------------

                1               2               3               4               5               6               7               8               9              10
               11              12              13              14              15              16              17              18              19              20
               21              22              23              24              25
 ................................................................................................................................................................
   1  110692.0994     110692.0251     110693.1739     110694.3583     110693.4345     110693.2965     110693.3465     110693.3675     110693.3157     110693.2578    
      110693.1776     110693.1088     110693.0280     110692.9382     110692.8501     110692.8097     110692.7555     110692.7135     110692.7005     110692.7003    
      110692.7589     110692.8497     110692.9674     110693.1050     110693.2467    
1
  CONCENTRATION IN LAYER   2 AT END OF TIME STEP 200 IN STRESS PERIOD    1
  ---------------------------------------------------------------------------

                1               2               3               4               5               6               7               8               9              10
               11              12              13              14              15              16              17              18              19              20
               21              22              23              24              25
 ................................................................................................................................................................
   1  110692.0575     110692.3741     110693.3118     110694.1870     110693.6100     110693.4061     110693.4033     110693.3887     110693.3254     110693.2610    
      110693.1822     110693.1105     110693.0284     110692.9383     110692.8501     110692.8098     110692.7557     110692.7136     110692.7005     110692.7003    
      110692.7589     110692.8497     110692.9674     110693.1050     110693.2467    
1
  CONCENTRATION IN LAYER   3 AT END OF TIME STEP 200 IN STRESS PERIOD    1
  ---------------------------------------------------------------------------

                1               2               3               4               5               6               7               8               9              10
               11              12              13              14              15              16              17              18              19              20
               21              22              23              24              25
 ................................................................................................................................................................
   1  110692.2867     110693.0010     110693.5623     110694.0590     110693.8688     110693.5952     110693.5016     110693.4280     110693.3433     110693.2682    
      110693.1901     110693.1135     110693.0293     110692.9385     110692.8502     110692.8101     110692.7559     110692.7137     110692.7006     110692.7003    
      110692.7589     110692.8497     110692.9674     110693.1050     110693.2467    
1
  CONCENTRATION IN LAYER   4 AT END OF TIME STEP 200 IN STRESS PERIOD    1
  ---------------------------------------------------------------------------

                1               2               3               4               5               6               7               8               9              10
               11              12              13              14              15              16              17              18              19              20
               21              22              23              24              25
 ................................................................................................................................................................
   1  110695.1670     110693.7327     110693.8763     110694.3329     110694.1050     110693.8118     110693.6146     110693.4791     110693.3665     110693.2811    
      110693.1988     110693.1173     110693.0305     110692.9389     110692.8503     110692.8104     110692.7563     110692.7139     110692.7007     110692.7003    
      110692.7589     110692.8497     110692.9674     110693.1050     110693.2467    
1
  CONCENTRATION IN LAYER   5 AT END OF TIME STEP 200 IN STRESS PERIOD    1
  ---------------------------------------------------------------------------

                1               2               3               4               5               6               7               8               9              10
               11              12              13              14              15              16              17              18              19              20
               21              22              23              24              25
 ................................................................................................................................................................
   1  110695.1670     110694.2211     110694.1976     110694.3232     110694.2872     110693.9986     110693.7279     110693.5347     110693.3963     110693.2956    
      110693.2075     110693.1215     110693.0320     110692.9394     110692.8504     110692.8108     110692.7568     110692.7142     110692.7008     110692.7003    
      110692.7589     110692.8497     110692.9673     110693.1050     110693.2467    
1
  CONCENTRATION IN LAYER   6 AT END OF TIME STEP 200 IN STRESS PERIOD    1
  ---------------------------------------------------------------------------

                1               2               3               4               5               6               7               8               9              10
               11              12              13              14              15              16              17              18              19              20
               21              22              23              24              25
 ................................................................................................................................................................
   1  110695.1670     110694.5509     110694.5076     110694.5374     110694.4400     110694.1426     110693.8267     110693.5899     110693.4262     110693.3111    
      110693.2165     110693.1258     110693.0335     110692.9400     110692.8506     110692.8113     110692.7573     110692.7144     110692.7009     110692.7003    
      110692.7589     110692.8496     110692.9673     110693.1050     110693.2467    
1
  CONCENTRATION IN LAYER   7 AT END OF TIME STEP 200 IN STRESS PERIOD    1
  ---------------------------------------------------------------------------

                1               2               3               4               5               6               7               8               9              10
               11              12              13              14              15              16              17              18              19              20
               21              22              23              24              25
 ................................................................................................................................................................
   1  110695.1670     110694.7764     110694.8088     110694.8008     110694.5797     110694.2520     110693.9076     110693.6393     110693.4539     110693.3258    
      110693.2250     110693.1302     110693.0345     110692.9405     110692.8509     110692.8118     110692.7578     110692.7147     110692.7010     110692.7004    
      110692.7589     110692.8496     110692.9673     110693.1050     110693.2467    
1
  CONCENTRATION IN LAYER   8 AT END OF TIME STEP 200 IN STRESS PERIOD    1
  ---------------------------------------------------------------------------

                1               2               3               4               5               6               7               8               9              10
               11              12              13              14              15              16              17              18              19              20
               21              22              23              24              25
 ................................................................................................................................................................
   1  110695.1670     110694.9334     110695.4686     110694.9984     110694.6905     110694.3323     110693.9693     110693.6794     110693.4770     110693.3383    
      110693.2322     110693.1344     110693.0350     110692.9409     110692.8511     110692.8122     110692.7583     110692.7149     110692.7011     110692.7004    
      110692.7589     110692.8496     110692.9673     110693.1050     110693.2467    
1
  CONCENTRATION IN LAYER   9 AT END OF TIME STEP 200 IN STRESS PERIOD    1
  ---------------------------------------------------------------------------

                1               2               3               4               5               6               7               8               9              10
               11              12              13              14              15              16              17              18              19              20
               21              22              23              24              25
 ................................................................................................................................................................
   1  110695.1670     110695.0699     110695.3711     110695.1194     110694.7674     110694.3860     110694.0108     110693.7075     110693.4935     110693.3474    
      110693.2373     110693.1377     110693.0352     110692.9411     110692.8513     110692.8126     110692.7586     110692.7151     110692.7012     110692.7004    
      110692.7589     110692.8496     110692.9673     110693.1050     110693.2467    
1
  CONCENTRATION IN LAYER  10 AT END OF TIME STEP 200 IN STRESS PERIOD    1
  ---------------------------------------------------------------------------

                1               2               3               4               5               6               7               8               9              10
               11              12              13              14              15              16              17              18              19              20
               21              22              23              24              25
 ................................................................................................................................................................
   1  110695.1670     110695.0928     110695.3275     110695.1764     110694.8060     110694.4130     110694.0318     110693.7219     110693.5022     110693.3521    
      110693.2400     110693.1395     110693.0352     110692.9413     110692.8514     110692.8127     110692.7588     110692.7152     110692.7013     110692.7004    
      110692.7589     110692.8497     110692.9673     110693.1050     110693.2467    

 CONCENTRATION WILL BE SAVED ON UNIT 1951 AT END OF TIME STEP  200, STRESS PERIOD    1


  MASS BUDGET FOR ENTIRE MODEL AT END OF TIME STEP  200, STRESS PERIOD   1
  ---------------------------------------------------------------------------------------------------

     CUMULATIVE MASS      M       RATES FOR THIS TIME STEP      M/T          PACKAGE NAME    
     ------------------                 ------------------------                     ----------------

           IN:                                      IN:
           ---                                      ---
     STORAGE-AQUEOUS =        1828.8559       STORAGE-AQUEOUS =           0.3161     MST                              
                 CHD =    13836594.5199                   CHD =        6918.2973     SSM_CHD                          
                 CNC =    32286897.8034                   CNC =       16143.4373     CNC                              

            TOTAL IN =    46125321.1791              TOTAL IN =       23062.0507

          OUT:                                     OUT:
          ----                                     ----
     STORAGE-AQUEOUS =        2484.4791       STORAGE-AQUEOUS =           0.9573     MST                              
                 CHD =    46122829.5030                   CHD =       23061.0934     SSM_CHD                          
                 CNC =           7.1970                   CNC =           0.0000     CNC                              

           TOTAL OUT =    46125321.1791             TOTAL OUT =       23062.0507

            IN - OUT =       1.7062E-06              IN - OUT =       3.3069E-09

 PERCENT DISCREPANCY =           0.00     PERCENT DISCREPANCY =           0.00




         TIME SUMMARY AT END OF TIME STEP  200 IN STRESS PERIOD    1
                    SECONDS     MINUTES      HOURS       DAYS        YEARS
                    -----------------------------------------------------------
   TIME STEP LENGTH 8.64000E+05  14400.      240.00      10.000     2.73785E-02
 STRESS PERIOD TIME 1.72800E+08 2.88000E+06  48000.      2000.0      5.4757    
         TOTAL TIME 1.72800E+08 2.88000E+06  48000.      2000.0      5.4757    


end timestep

