                                   MODFLOW 6
                U.S. GEOLOGICAL SURVEY MODULAR HYDROLOGIC MODEL
                       GROUNDWATER TRANSPORT MODEL (GWT)
                VERSION 6.5.0.dev0+prt (preliminary) 10/07/2023
                               ***DEVELOP MODE***

   MODFLOW 6 compiled Oct 07 2023 02:19:02 with Intel(R) Fortran Intel(R) 64
   Compiler Classic for applications running on Intel(R) 64, Version 2021.7.0
                             Build 20220726_000000

This software is preliminary or provisional and is subject to 
revision. It is being provided to meet the need for timely best 
science. The software has not received final approval by the U.S. 
Geological Survey (USGS). No warranty, expressed or implied, is made 
by the USGS or the U.S. Government as to the functionality of the 
software and related material nor shall the fact of release 
constitute any such warranty. The software is provided on the 
condition that neither the USGS nor the U.S. Government shall be held 
liable for any damages resulting from the authorized or unauthorized 
use of the software.


As a work of the United States Government, this USGS product is 
in the public domain within the United States. You can copy, 
modify, distribute, and perform the work, even for commercial 
purposes, all without asking permission. Additionally, USGS 
waives copyright and related rights in the work worldwide 
through CC0 1.0 Universal Public Domain Dedication 
(https://creativecommons.org/publicdomain/zero/1.0/).

The following GNU Lesser General Public License (LGPL) libraries
are used in this USGS product:

    SPARSKIT version 2.0
      ilut, luson, and qsplit 
      (https://www-users.cse.umn.edu/~saad/software/SPARSKIT/)

    RCM - Reverse Cuthill McKee Ordering
      (https://people.math.sc.edu/Burkardt/f_src/rcm/rcm.html)

    BLAS - Basic Linear Algebra Subprograms Level 1
      (https://people.math.sc.edu/Burkardt/f_src/blas1_d/blas1_d.html)

    SPARSEKIT - Sparse Matrix Utility Package
      amux, dperm, dvperm, rperm, and cperm
      (https://people.sc.fsu.edu/~jburkardt/f77_src/sparsekit/sparsekit.html)

The following BSD-3 License libraries are used in this USGS product:

    Modern Fortran DAG Library
      Copyright (c) 2018, Jacob Williams
      All rights reserved.
      (https://github.com/jacobwilliams/daglib)

MODFLOW 6 compiler options: /Isrc\libmf6core.a.p /Isrc /I..\src
/Isrc\libmf6_external.a.p /MTd /nologo /warn:general /warn:truncated_source
/stand:f08 /Zi /traceback /O2 /fpe:0 /heap-arrays:0 /traceback /fpp
/Qdiag-disable:7416 /Qdiag-disable:7025 /Qdiag-disable:5268
/Fdsrc\libmf6core.a.p\Utilities_compilerversion.F90.pdb
/module:src\libmf6core.a.p
/Fosrc/libmf6core.a.p/Utilities_compilerversion.F90.obj /c

System command used to initiate simulation:
c:\Users\portega\anaconda3\envs\mf6rtm\python.exe -m ipykernel_launcher --f=c:\Users\portega\AppData\Roaming\jupyter\runtime\kernel-v2-51408na7dKTn0i5X.json

MODFLOW was compiled using uniform precision.

Real Variables
  KIND: 8
  TINY (smallest non-zero value):    2.225074-308
  HUGE (largest value):    1.797693+308
  PRECISION: 15
  SIZE IN BITS: 64

Integer Variables
  KIND: 4
  HUGE (largest value): 2147483647
  SIZE IN BITS: 32

Long Integer Variables
  KIND: 8
  HUGE (largest value): 9223372036854775807
  SIZE IN BITS: 64

Logical Variables
  KIND: 4
  SIZE IN BITS: 32
 
 NAMEFILE OPTIONS:
 END NAMEFILE OPTIONS:

 DIS -- STRUCTURED GRID DISCRETIZATION PACKAGE, VERSION 2 : 3/27/2014 - INPUT READ FROM MEMPATH: __INPUT__/H/DIS                                   


 DSP-- DISPERSION PACKAGE, VERSION 1, 1/24/2018 INPUT READ FROM MEMPATH: __INPUT__/H/DSP                                   


 Setting Discretization Options
    Model length unit [0=UND, 1=FEET, 2=METERS, 3=CENTIMETERS] set as 2
 End Setting Discretization Options

 Setting Discretization Dimensions
    NLAY = 10
    NROW = 1
    NCOL = 25
 End Setting Discretization Dimensions

 Setting Discretization Griddata
    DELR set from input file
    DELC set from input file
    TOP set from input file
    BOTM set from input file
    IDOMAIN set from input file
 End Setting Discretization Griddata


 FMI -- FLOW MODEL INTERFACE,' VERSION 2, 8/17/2023
  FLOWS PROVIDED BY A GWF MODEL IN THIS SIMULATION

 ADV-- ADVECTION PACKAGE, VERSION 1, 8/25/2017 INPUT READ FROM UNIT 12563


 # File generated by Flopy version 3.5.0.dev0 on 07/04/2024 at 16:27:57.
 PROCESSING ADVECTION OPTIONS
    ADVECTION WEIGHTING SCHEME HAS BEEN SET TO: TVD
 END OF ADVECTION OPTIONS
 Setting DSP Options
    XT3D formulation [0=INACTIVE, 1=ACTIVE, 3=ACTIVE RHS] set to: 0
 End Setting DSP Options

 Setting DSP Griddata
    ALH set from input file
    ATH1 set from input file
    ATV set from input file
 End Setting DSP Griddata


 CNC   -- CNC PACKAGE, VERSION 8, 2/22/2014 INPUT READ FROM UNIT 12597
 # File generated by Flopy version 3.5.0.dev0 on 07/04/2024 at 16:27:57.

 PROCESSING CNC OPTIONS
    CNC FLOWS WILL BE PRINTED TO LISTING FILE.
    FLOWS WILL BE SAVED TO BUDGET FILE SPECIFIED IN OUTPUT CONTROL
 END OF CNC OPTIONS

 PROCESSING CNC DIMENSIONS
    MAXBOUND =       7
 END OF CNC DIMENSIONS

 IC -- INITIAL CONDITIONS PACKAGE, VERSION 8, 3/28/2015 INPUT READ FROM UNIT 12561
 # File generated by Flopy version 3.5.0.dev0 on 07/04/2024 at 16:27:57.
 PROCESSING GRIDDATA

 OPENED H.ic_strt_layer1.txt
 FILE TYPE:OPEN/CLOSE   UNIT ****   STATUS:OLD                 
 FORMAT:FORMATTED              ACCESS:SEQUENTIAL          
 ACTION:READ                


 OPENED H.ic_strt_layer2.txt
 FILE TYPE:OPEN/CLOSE   UNIT ****   STATUS:OLD                 
 FORMAT:FORMATTED              ACCESS:SEQUENTIAL          
 ACTION:READ                


 OPENED H.ic_strt_layer3.txt
 FILE TYPE:OPEN/CLOSE   UNIT ****   STATUS:OLD                 
 FORMAT:FORMATTED              ACCESS:SEQUENTIAL          
 ACTION:READ                


 OPENED H.ic_strt_layer4.txt
 FILE TYPE:OPEN/CLOSE   UNIT ****   STATUS:OLD                 
 FORMAT:FORMATTED              ACCESS:SEQUENTIAL          
 ACTION:READ                


 OPENED H.ic_strt_layer5.txt
 FILE TYPE:OPEN/CLOSE   UNIT ****   STATUS:OLD                 
 FORMAT:FORMATTED              ACCESS:SEQUENTIAL          
 ACTION:READ                


 OPENED H.ic_strt_layer6.txt
 FILE TYPE:OPEN/CLOSE   UNIT ****   STATUS:OLD                 
 FORMAT:FORMATTED              ACCESS:SEQUENTIAL          
 ACTION:READ                


 OPENED H.ic_strt_layer7.txt
 FILE TYPE:OPEN/CLOSE   UNIT ****   STATUS:OLD                 
 FORMAT:FORMATTED              ACCESS:SEQUENTIAL          
 ACTION:READ                


 OPENED H.ic_strt_layer8.txt
 FILE TYPE:OPEN/CLOSE   UNIT ****   STATUS:OLD                 
 FORMAT:FORMATTED              ACCESS:SEQUENTIAL          
 ACTION:READ                


 OPENED H.ic_strt_layer9.txt
 FILE TYPE:OPEN/CLOSE   UNIT ****   STATUS:OLD                 
 FORMAT:FORMATTED              ACCESS:SEQUENTIAL          
 ACTION:READ                


 OPENED H.ic_strt_layer10.txt
 FILE TYPE:OPEN/CLOSE   UNIT ****   STATUS:OLD                 
 FORMAT:FORMATTED              ACCESS:SEQUENTIAL          
 ACTION:READ                

 END PROCESSING GRIDDATA

 MST -- MOBILE STORAGE AND TRANSFER PACKAGE, VERSION 1, 7/29/2020 INPUT READ FROM UNIT 12562


 # File generated by Flopy version 3.5.0.dev0 on 07/04/2024 at 16:27:57.
 PROCESSING MOBILE STORAGE AND TRANSFER OPTIONS
 END OF MOBILE STORAGE AND TRANSFER OPTIONS
 PROCESSING GRIDDATA

 OPENED H.mst_porosity.txt
 FILE TYPE:OPEN/CLOSE   UNIT ****   STATUS:OLD                 
 FORMAT:FORMATTED              ACCESS:SEQUENTIAL          
 ACTION:READ                

 END PROCESSING GRIDDATA

 SSM -- SOURCE-SINK MIXING PACKAGE, VERSION 1, 8/25/2017 INPUT READ FROM UNIT 12595


 # File generated by Flopy version 3.5.0.dev0 on 07/04/2024 at 16:27:57.
 PROCESSING SSM OPTIONS
    SSM FLOW INFORMATION WILL BE PRINTED TO LISTING FILE WHENEVER ICBCFL IS NOT ZERO.
    CELL-BY-CELL FLOW INFORMATION WILL BE SAVED TO BINARY FILE WHENEVER ICBCFL IS NOT ZERO.
 END OF SSM OPTIONS

 OPENED H.ssm_sources.txt
 FILE TYPE:OPEN/CLOSE   UNIT ****   STATUS:OLD                 
 FORMAT:FORMATTED              ACCESS:SEQUENTIAL          
 ACTION:READ                

 PROCESSING SOURCES
 AUX SOURCE DETECTED.
    USING AUX COLUMN 1 IN PACKAGE CHDTAIL
 END PROCESSING SOURCES
 OPTIONAL FILEINPUT BLOCK NOT FOUND.  CONTINUING.
      THE LAST TIME STEP WILL BE PRINTED
      THE LAST TIME STEP WILL BE PRINTED
 # File generated by Flopy version 3.5.0.dev0 on 07/04/2024 at 16:27:57.

 PROCESSING OC OPTIONS

    BUDGET INFORMATION WILL BE WRITTEN TO:
      UNIT NUMBER: 13452
      FILE NAME: H.cbb

 OPENED H.cbb
 FILE TYPE:DATA(BINARY)   UNIT ****   STATUS:REPLACE             
 FORMAT:UNFORMATTED            ACCESS:STREAM              
 ACTION:READWRITE           

    CONCENTRATION INFORMATION WILL BE WRITTEN TO:
      UNIT NUMBER: 13453
      FILE NAME: H.ucn

 OPENED H.ucn
 FILE TYPE:DATA(BINARY)   UNIT ****   STATUS:REPLACE             
 FORMAT:UNFORMATTED            ACCESS:STREAM              
 ACTION:READWRITE           

 END OF OC OPTIONS

start timestep kper="1" kstp="1" mode="normal"


 BEGIN READING OUTPUT CONTROL FOR STRESS PERIOD 1
      ALL TIME STEPS WILL BE SAVED
      ALL TIME STEPS WILL BE PRINTED

 END READING OUTPUT CONTROL FOR STRESS PERIOD 1

 OPENED H.cnc_stress_period_data_1.txt
 FILE TYPE:OPEN/CLOSE   UNIT ****   STATUS:OLD                 
 FORMAT:FORMATTED              ACCESS:SEQUENTIAL          
 ACTION:READ                

1
  CONCENTRATION IN LAYER   1 AT END OF TIME STEP   1 IN STRESS PERIOD    1
  ---------------------------------------------------------------------------

                1               2               3               4               5               6               7               8               9              10
               11              12              13              14              15              16              17              18              19              20
               21              22              23              24              25
 ................................................................................................................................................................
   1  110694.6707     110695.0330     110695.1494     110695.1657     110695.1679     110695.1678     110695.1672     110695.1667     110695.1670     110695.1677    
      110695.1678     110695.1674     110695.1667     110695.1663     110695.1664     110695.1665     110695.1665     110695.1663     110695.1662     110695.1663    
      110695.1664     110695.1665     110695.1667     110695.1669     110695.1670    
1
  CONCENTRATION IN LAYER   2 AT END OF TIME STEP   1 IN STRESS PERIOD    1
  ---------------------------------------------------------------------------

                1               2               3               4               5               6               7               8               9              10
               11              12              13              14              15              16              17              18              19              20
               21              22              23              24              25
 ................................................................................................................................................................
   1  110694.7091     110695.0484     110695.1514     110695.1664     110695.1689     110695.1686     110695.1672     110695.1663     110695.1670     110695.1683    
      110695.1685     110695.1676     110695.1663     110695.1657     110695.1658     110695.1661     110695.1660     110695.1658     110695.1656     110695.1657    
      110695.1659     110695.1662     110695.1665     110695.1668     110695.1670    
1
  CONCENTRATION IN LAYER   3 AT END OF TIME STEP   1 IN STRESS PERIOD    1
  ---------------------------------------------------------------------------

                1               2               3               4               5               6               7               8               9              10
               11              12              13              14              15              16              17              18              19              20
               21              22              23              24              25
 ................................................................................................................................................................
   1  110694.8291     110695.0836     110695.1552     110695.1677     110695.1706     110695.1697     110695.1671     110695.1656     110695.1670     110695.1694    
      110695.1696     110695.1679     110695.1657     110695.1647     110695.1650     110695.1655     110695.1653     110695.1649     110695.1646     110695.1648    
      110695.1652     110695.1657     110695.1662     110695.1668     110695.1670    
1
  CONCENTRATION IN LAYER   4 AT END OF TIME STEP   1 IN STRESS PERIOD    1
  ---------------------------------------------------------------------------

                1               2               3               4               5               6               7               8               9              10
               11              12              13              14              15              16              17              18              19              20
               21              22              23              24              25
 ................................................................................................................................................................
   1  110695.1670     110695.1378     110695.1590     110695.1687     110695.1719     110695.1705     110695.1669     110695.1650     110695.1671     110695.1703    
      110695.1706     110695.1682     110695.1652     110695.1640     110695.1645     110695.1650     110695.1648     110695.1643     110695.1639     110695.1640    
      110695.1646     110695.1653     110695.1659     110695.1667     110695.1670    
1
  CONCENTRATION IN LAYER   5 AT END OF TIME STEP   1 IN STRESS PERIOD    1
  ---------------------------------------------------------------------------

                1               2               3               4               5               6               7               8               9              10
               11              12              13              14              15              16              17              18              19              20
               21              22              23              24              25
 ................................................................................................................................................................
   1  110695.1670     110695.1568     110695.1632     110695.1695     110695.1725     110695.1708     110695.1666     110695.1646     110695.1671     110695.1709    
      110695.1712     110695.1684     110695.1649     110695.1636     110695.1642     110695.1649     110695.1647     110695.1639     110695.1634     110695.1636    
      110695.1642     110695.1650     110695.1657     110695.1666     110695.1669    
1
  CONCENTRATION IN LAYER   6 AT END OF TIME STEP   1 IN STRESS PERIOD    1
  ---------------------------------------------------------------------------

                1               2               3               4               5               6               7               8               9              10
               11              12              13              14              15              16              17              18              19              20
               21              22              23              24              25
 ................................................................................................................................................................
   1  110695.1670     110695.1635     110695.1657     110695.1699     110695.1726     110695.1708     110695.1665     110695.1645     110695.1671     110695.1711    
      110695.1713     110695.1685     110695.1649     110695.1635     110695.1642     110695.1649     110695.1647     110695.1639     110695.1634     110695.1635    
      110695.1642     110695.1650     110695.1656     110695.1665     110695.1669    
1
  CONCENTRATION IN LAYER   7 AT END OF TIME STEP   1 IN STRESS PERIOD    1
  ---------------------------------------------------------------------------

                1               2               3               4               5               6               7               8               9              10
               11              12              13              14              15              16              17              18              19              20
               21              22              23              24              25
 ................................................................................................................................................................
   1  110695.1670     110695.1659     110695.1669     110695.1700     110695.1723     110695.1706     110695.1664     110695.1646     110695.1671     110695.1710    
      110695.1712     110695.1685     110695.1650     110695.1637     110695.1643     110695.1651     110695.1648     110695.1640     110695.1635     110695.1637    
      110695.1642     110695.1650     110695.1656     110695.1665     110695.1669    
1
  CONCENTRATION IN LAYER   8 AT END OF TIME STEP   1 IN STRESS PERIOD    1
  ---------------------------------------------------------------------------

                1               2               3               4               5               6               7               8               9              10
               11              12              13              14              15              16              17              18              19              20
               21              22              23              24              25
 ................................................................................................................................................................
   1  110695.1670     110695.1668     110695.1674     110695.1699     110695.1718     110695.1702     110695.1665     110695.1648     110695.1671     110695.1706    
      110695.1708     110695.1684     110695.1652     110695.1640     110695.1646     110695.1652     110695.1650     110695.1643     110695.1638     110695.1640    
      110695.1645     110695.1652     110695.1658     110695.1665     110695.1669    
1
  CONCENTRATION IN LAYER   9 AT END OF TIME STEP   1 IN STRESS PERIOD    1
  ---------------------------------------------------------------------------

                1               2               3               4               5               6               7               8               9              10
               11              12              13              14              15              16              17              18              19              20
               21              22              23              24              25
 ................................................................................................................................................................
   1  110695.1670     110695.1670     110695.1675     110695.1694     110695.1708     110695.1696     110695.1666     110695.1653     110695.1671     110695.1699    
      110695.1701     110695.1681     110695.1656     110695.1646     110695.1650     110695.1655     110695.1654     110695.1648     110695.1644     110695.1645    
      110695.1649     110695.1655     110695.1660     110695.1666     110695.1669    
1
  CONCENTRATION IN LAYER  10 AT END OF TIME STEP   1 IN STRESS PERIOD    1
  ---------------------------------------------------------------------------

                1               2               3               4               5               6               7               8               9              10
               11              12              13              14              15              16              17              18              19              20
               21              22              23              24              25
 ................................................................................................................................................................
   1  110695.1670     110695.1670     110695.1673     110695.1682     110695.1691     110695.1685     110695.1669     110695.1661     110695.1669     110695.1684    
      110695.1686     110695.1677     110695.1664     110695.1657     110695.1659     110695.1662     110695.1661     110695.1659     110695.1656     110695.1657    
      110695.1658     110695.1661     110695.1664     110695.1667     110695.1670    

 CONCENTRATION WILL BE SAVED ON UNIT **** AT END OF TIME STEP    1, STRESS PERIOD    1



         TIME SUMMARY AT END OF TIME STEP    1 IN STRESS PERIOD    1
                    SECONDS     MINUTES      HOURS       DAYS        YEARS
                    -----------------------------------------------------------
   TIME STEP LENGTH 1.72800E+06  28800.      480.00      20.000     5.47570E-02
 STRESS PERIOD TIME 1.72800E+06  28800.      480.00      20.000     5.47570E-02
         TOTAL TIME 1.72800E+06  28800.      480.00      20.000     5.47570E-02


end timestep


start timestep kper="1" kstp="2" mode="normal"

1
  CONCENTRATION IN LAYER   1 AT END OF TIME STEP   2 IN STRESS PERIOD    1
  ---------------------------------------------------------------------------

                1               2               3               4               5               6               7               8               9              10
               11              12              13              14              15              16              17              18              19              20
               21              22              23              24              25
 ................................................................................................................................................................
   1  110694.3376     110694.8555     110695.1059     110695.1587     110695.1670     110695.1681     110695.1680     110695.1677     110695.1675     110695.1676    
      110695.1675     110695.1673     110695.1668     110695.1663     110695.1660     110695.1658     110695.1657     110695.1656     110695.1655     110695.1656    
      110695.1657     110695.1660     110695.1663     110695.1667     110695.1669    
1
  CONCENTRATION IN LAYER   2 AT END OF TIME STEP   2 IN STRESS PERIOD    1
  ---------------------------------------------------------------------------

                1               2               3               4               5               6               7               8               9              10
               11              12              13              14              15              16              17              18              19              20
               21              22              23              24              25
 ................................................................................................................................................................
   1  110694.4200     110694.8948     110695.1129     110695.1597     110695.1672     110695.1683     110695.1686     110695.1684     110695.1680     110695.1677    
      110695.1673     110695.1671     110695.1666     110695.1660     110695.1655     110695.1652     110695.1650     110695.1649     110695.1649     110695.1650    
      110695.1652     110695.1656     110695.1660     110695.1666     110695.1669    
1
  CONCENTRATION IN LAYER   3 AT END OF TIME STEP   2 IN STRESS PERIOD    1
  ---------------------------------------------------------------------------

                1               2               3               4               5               6               7               8               9              10
               11              12              13              14              15              16              17              18              19              20
               21              22              23              24              25
 ................................................................................................................................................................
   1  110694.6453     110694.9772     110695.1252     110695.1612     110695.1673     110695.1686     110695.1695     110695.1695     110695.1687     110695.1677    
      110695.1669     110695.1668     110695.1664     110695.1657     110695.1649     110695.1643     110695.1639     110695.1639     110695.1640     110695.1642    
      110695.1645     110695.1650     110695.1656     110695.1664     110695.1669    
1
  CONCENTRATION IN LAYER   4 AT END OF TIME STEP   2 IN STRESS PERIOD    1
  ---------------------------------------------------------------------------

                1               2               3               4               5               6               7               8               9              10
               11              12              13              14              15              16              17              18              19              20
               21              22              23              24              25
 ................................................................................................................................................................
   1  110695.1670     110695.0902     110695.1380     110695.1628     110695.1676     110695.1690     110695.1703     110695.1704     110695.1693     110695.1678    
      110695.1666     110695.1666     110695.1663     110695.1655     110695.1644     110695.1635     110695.1630     110695.1630     110695.1631     110695.1634    
      110695.1639     110695.1645     110695.1652     110695.1663     110695.1669    
1
  CONCENTRATION IN LAYER   5 AT END OF TIME STEP   2 IN STRESS PERIOD    1
  ---------------------------------------------------------------------------

                1               2               3               4               5               6               7               8               9              10
               11              12              13              14              15              16              17              18              19              20
               21              22              23              24              25
 ................................................................................................................................................................
   1  110695.1670     110695.1364     110695.1509     110695.1645     110695.1679     110695.1693     110695.1708     110695.1709     110695.1696     110695.1679    
      110695.1666     110695.1666     110695.1663     110695.1654     110695.1641     110695.1631     110695.1626     110695.1625     110695.1627     110695.1630    
      110695.1635     110695.1641     110695.1649     110695.1661     110695.1668    
1
  CONCENTRATION IN LAYER   6 AT END OF TIME STEP   2 IN STRESS PERIOD    1
  ---------------------------------------------------------------------------

                1               2               3               4               5               6               7               8               9              10
               11              12              13              14              15              16              17              18              19              20
               21              22              23              24              25
 ................................................................................................................................................................
   1  110695.1670     110695.1550     110695.1591     110695.1659     110695.1681     110695.1694     110695.1709     110695.1710     110695.1697     110695.1679    
      110695.1666     110695.1666     110695.1663     110695.1654     110695.1641     110695.1630     110695.1625     110695.1624     110695.1626     110695.1629    
      110695.1633     110695.1640     110695.1648     110695.1661     110695.1668    
1
  CONCENTRATION IN LAYER   7 AT END OF TIME STEP   2 IN STRESS PERIOD    1
  ---------------------------------------------------------------------------

                1               2               3               4               5               6               7               8               9              10
               11              12              13              14              15              16              17              18              19              20
               21              22              23              24              25
 ................................................................................................................................................................
   1  110695.1670     110695.1623     110695.1635     110695.1669     110695.1682     110695.1694     110695.1708     110695.1709     110695.1696     110695.1679    
      110695.1667     110695.1667     110695.1664     110695.1655     110695.1642     110695.1632     110695.1626     110695.1626     110695.1627     110695.1630    
      110695.1634     110695.1641     110695.1649     110695.1661     110695.1668    
1
  CONCENTRATION IN LAYER   8 AT END OF TIME STEP   2 IN STRESS PERIOD    1
  ---------------------------------------------------------------------------

                1               2               3               4               5               6               7               8               9              10
               11              12              13              14              15              16              17              18              19              20
               21              22              23              24              25
 ................................................................................................................................................................
   1  110695.1670     110695.1652     110695.1656     110695.1675     110695.1682     110695.1692     110695.1705     110695.1705     110695.1693     110695.1678    
      110695.1667     110695.1667     110695.1665     110695.1656     110695.1645     110695.1636     110695.1631     110695.1630     110695.1631     110695.1634    
      110695.1637     110695.1643     110695.1650     110695.1661     110695.1668    
1
  CONCENTRATION IN LAYER   9 AT END OF TIME STEP   2 IN STRESS PERIOD    1
  ---------------------------------------------------------------------------

                1               2               3               4               5               6               7               8               9              10
               11              12              13              14              15              16              17              18              19              20
               21              22              23              24              25
 ................................................................................................................................................................
   1  110695.1670     110695.1663     110695.1665     110695.1676     110695.1681     110695.1689     110695.1699     110695.1698     110695.1688     110695.1677    
      110695.1669     110695.1669     110695.1666     110695.1658     110695.1649     110695.1642     110695.1637     110695.1637     110695.1637     110695.1639    
      110695.1643     110695.1647     110695.1653     110695.1662     110695.1668    
1
  CONCENTRATION IN LAYER  10 AT END OF TIME STEP   2 IN STRESS PERIOD    1
  ---------------------------------------------------------------------------

                1               2               3               4               5               6               7               8               9              10
               11              12              13              14              15              16              17              18              19              20
               21              22              23              24              25
 ................................................................................................................................................................
   1  110695.1670     110695.1667     110695.1668     110695.1676     110695.1684     110695.1687     110695.1686     110695.1682     110695.1680     110695.1680    
      110695.1677     110695.1673     110695.1666     110695.1659     110695.1654     110695.1651     110695.1648     110695.1647     110695.1646     110695.1647    
      110695.1649     110695.1653     110695.1658     110695.1664     110695.1668    

 CONCENTRATION WILL BE SAVED ON UNIT **** AT END OF TIME STEP    2, STRESS PERIOD    1



         TIME SUMMARY AT END OF TIME STEP    2 IN STRESS PERIOD    1
                    SECONDS     MINUTES      HOURS       DAYS        YEARS
                    -----------------------------------------------------------
   TIME STEP LENGTH 1.72800E+06  28800.      480.00      20.000     5.47570E-02
 STRESS PERIOD TIME 3.45600E+06  57600.      960.00      40.000     0.10951    
         TOTAL TIME 3.45600E+06  57600.      960.00      40.000     0.10951    


end timestep


start timestep kper="1" kstp="3" mode="normal"

1
  CONCENTRATION IN LAYER   1 AT END OF TIME STEP   3 IN STRESS PERIOD    1
  ---------------------------------------------------------------------------

                1               2               3               4               5               6               7               8               9              10
               11              12              13              14              15              16              17              18              19              20
               21              22              23              24              25
 ................................................................................................................................................................
   1  110694.1167     110694.6823     110695.0393     110695.1429     110695.1642     110695.1679     110695.1684     110695.1682     110695.1679     110695.1677    
      110695.1675     110695.1672     110695.1667     110695.1660     110695.1655     110695.1652     110695.1650     110695.1649     110695.1648     110695.1649    
      110695.1651     110695.1654     110695.1658     110695.1664     110695.1668    
1
  CONCENTRATION IN LAYER   2 AT END OF TIME STEP   3 IN STRESS PERIOD    1
  ---------------------------------------------------------------------------

                1               2               3               4               5               6               7               8               9              10
               11              12              13              14              15              16              17              18              19              20
               21              22              23              24              25
 ................................................................................................................................................................
   1  110694.2352     110694.7459     110695.0538     110695.1451     110695.1647     110695.1683     110695.1688     110695.1685     110695.1680     110695.1678    
      110695.1675     110695.1671     110695.1665     110695.1657     110695.1651     110695.1647     110695.1644     110695.1643     110695.1643     110695.1644    
      110695.1646     110695.1651     110695.1656     110695.1663     110695.1668    
1
  CONCENTRATION IN LAYER   3 AT END OF TIME STEP   3 IN STRESS PERIOD    1
  ---------------------------------------------------------------------------

                1               2               3               4               5               6               7               8               9              10
               11              12              13              14              15              16              17              18              19              20
               21              22              23              24              25
 ................................................................................................................................................................
   1  110694.5356     110694.8728     110695.0788     110695.1486     110695.1654     110695.1689     110695.1694     110695.1690     110695.1683     110695.1678    
      110695.1674     110695.1670     110695.1662     110695.1652     110695.1643     110695.1638     110695.1635     110695.1634     110695.1634     110695.1635    
      110695.1639     110695.1645     110695.1652     110695.1661     110695.1667    
1
  CONCENTRATION IN LAYER   4 AT END OF TIME STEP   3 IN STRESS PERIOD    1
  ---------------------------------------------------------------------------

                1               2               3               4               5               6               7               8               9              10
               11              12              13              14              15              16              17              18              19              20
               21              22              23              24              25
 ................................................................................................................................................................
   1  110695.1670     110695.0366     110695.1058     110695.1525     110695.1662     110695.1694     110695.1700     110695.1695     110695.1686     110695.1680    
      110695.1674     110695.1669     110695.1660     110695.1648     110695.1637     110695.1630     110695.1627     110695.1625     110695.1626     110695.1628    
      110695.1632     110695.1639     110695.1648     110695.1659     110695.1667    
1
  CONCENTRATION IN LAYER   5 AT END OF TIME STEP   3 IN STRESS PERIOD    1
  ---------------------------------------------------------------------------

                1               2               3               4               5               6               7               8               9              10
               11              12              13              14              15              16              17              18              19              20
               21              22              23              24              25
 ................................................................................................................................................................
   1  110695.1670     110695.1102     110695.1313     110695.1568     110695.1670     110695.1698     110695.1703     110695.1698     110695.1688     110695.1681    
      110695.1674     110695.1669     110695.1659     110695.1646     110695.1634     110695.1626     110695.1622     110695.1620     110695.1620     110695.1623    
      110695.1628     110695.1636     110695.1645     110695.1658     110695.1667    
1
  CONCENTRATION IN LAYER   6 AT END OF TIME STEP   3 IN STRESS PERIOD    1
  ---------------------------------------------------------------------------

                1               2               3               4               5               6               7               8               9              10
               11              12              13              14              15              16              17              18              19              20
               21              22              23              24              25
 ................................................................................................................................................................
   1  110695.1670     110695.1426     110695.1482     110695.1608     110695.1676     110695.1699     110695.1705     110695.1699     110695.1689     110695.1681    
      110695.1674     110695.1669     110695.1659     110695.1645     110695.1633     110695.1625     110695.1620     110695.1619     110695.1619     110695.1621    
      110695.1626     110695.1634     110695.1644     110695.1657     110695.1666    
1
  CONCENTRATION IN LAYER   7 AT END OF TIME STEP   3 IN STRESS PERIOD    1
  ---------------------------------------------------------------------------

                1               2               3               4               5               6               7               8               9              10
               11              12              13              14              15              16              17              18              19              20
               21              22              23              24              25
 ................................................................................................................................................................
   1  110695.1670     110695.1567     110695.1578     110695.1637     110695.1681     110695.1699     110695.1704     110695.1698     110695.1688     110695.1681    
      110695.1675     110695.1670     110695.1660     110695.1646     110695.1634     110695.1627     110695.1622     110695.1620     110695.1620     110695.1622    
      110695.1627     110695.1635     110695.1644     110695.1657     110695.1666    
1
  CONCENTRATION IN LAYER   8 AT END OF TIME STEP   3 IN STRESS PERIOD    1
  ---------------------------------------------------------------------------

                1               2               3               4               5               6               7               8               9              10
               11              12              13              14              15              16              17              18              19              20
               21              22              23              24              25
 ................................................................................................................................................................
   1  110695.1670     110695.1627     110695.1627     110695.1655     110695.1683     110695.1698     110695.1701     110695.1695     110695.1687     110695.1681    
      110695.1675     110695.1671     110695.1661     110695.1649     110695.1637     110695.1630     110695.1626     110695.1625     110695.1624     110695.1626    
      110695.1630     110695.1637     110695.1646     110695.1657     110695.1666    
1
  CONCENTRATION IN LAYER   9 AT END OF TIME STEP   3 IN STRESS PERIOD    1
  ---------------------------------------------------------------------------

                1               2               3               4               5               6               7               8               9              10
               11              12              13              14              15              16              17              18              19              20
               21              22              23              24              25
 ................................................................................................................................................................
   1  110695.1670     110695.1652     110695.1650     110695.1665     110695.1684     110695.1695     110695.1696     110695.1691     110695.1684     110695.1680    
      110695.1676     110695.1672     110695.1663     110695.1652     110695.1642     110695.1636     110695.1632     110695.1631     110695.1630     110695.1632    
      110695.1635     110695.1641     110695.1649     110695.1658     110695.1667    
1
  CONCENTRATION IN LAYER  10 AT END OF TIME STEP   3 IN STRESS PERIOD    1
  ---------------------------------------------------------------------------

                1               2               3               4               5               6               7               8               9              10
               11              12              13              14              15              16              17              18              19              20
               21              22              23              24              25
 ................................................................................................................................................................
   1  110695.1670     110695.1660     110695.1659     110695.1669     110695.1682     110695.1690     110695.1691     110695.1688     110695.1683     110695.1680    
      110695.1677     110695.1673     110695.1665     110695.1656     110695.1648     110695.1643     110695.1640     110695.1638     110695.1638     110695.1639    
      110695.1641     110695.1646     110695.1652     110695.1660     110695.1667    

 CONCENTRATION WILL BE SAVED ON UNIT **** AT END OF TIME STEP    3, STRESS PERIOD    1



         TIME SUMMARY AT END OF TIME STEP    3 IN STRESS PERIOD    1
                    SECONDS     MINUTES      HOURS       DAYS        YEARS
                    -----------------------------------------------------------
   TIME STEP LENGTH 1.72800E+06  28800.      480.00      20.000     5.47570E-02
 STRESS PERIOD TIME 5.18400E+06  86400.      1440.0      60.000     0.16427    
         TOTAL TIME 5.18400E+06  86400.      1440.0      60.000     0.16427    


end timestep


start timestep kper="1" kstp="4" mode="normal"

1
  CONCENTRATION IN LAYER   1 AT END OF TIME STEP   4 IN STRESS PERIOD    1
  ---------------------------------------------------------------------------

                1               2               3               4               5               6               7               8               9              10
               11              12              13              14              15              16              17              18              19              20
               21              22              23              24              25
 ................................................................................................................................................................
   1  110693.9703     110694.5330     110694.9582     110695.1165     110695.1579     110695.1668     110695.1685     110695.1685     110695.1682     110695.1679    
      110695.1675     110695.1671     110695.1666     110695.1659     110695.1652     110695.1648     110695.1644     110695.1643     110695.1642     110695.1643    
      110695.1645     110695.1649     110695.1654     110695.1660     110695.1666    
1
  CONCENTRATION IN LAYER   2 AT END OF TIME STEP   4 IN STRESS PERIOD    1
  ---------------------------------------------------------------------------

                1               2               3               4               5               6               7               8               9              10
               11              12              13              14              15              16              17              18              19              20
               21              22              23              24              25
 ................................................................................................................................................................
   1  110694.1151     110694.6174     110694.9814     110695.1206     110695.1586     110695.1670     110695.1687     110695.1687     110695.1683     110695.1679    
      110695.1674     110695.1669     110695.1664     110695.1656     110695.1648     110695.1643     110695.1639     110695.1637     110695.1637     110695.1638    
      110695.1641     110695.1646     110695.1652     110695.1659     110695.1666    
1
  CONCENTRATION IN LAYER   3 AT END OF TIME STEP   4 IN STRESS PERIOD    1
  ---------------------------------------------------------------------------

                1               2               3               4               5               6               7               8               9              10
               11              12              13              14              15              16              17              18              19              20
               21              22              23              24              25
 ................................................................................................................................................................
   1  110694.4665     110694.7809     110695.0212     110695.1274     110695.1597     110695.1675     110695.1691     110695.1691     110695.1686     110695.1679    
      110695.1672     110695.1667     110695.1660     110695.1651     110695.1642     110695.1635     110695.1631     110695.1629     110695.1629     110695.1631    
      110695.1635     110695.1641     110695.1648     110695.1658     110695.1666    
1
  CONCENTRATION IN LAYER   4 AT END OF TIME STEP   4 IN STRESS PERIOD    1
  ---------------------------------------------------------------------------

                1               2               3               4               5               6               7               8               9              10
               11              12              13              14              15              16              17              18              19              20
               21              22              23              24              25
 ................................................................................................................................................................
   1  110695.1670     110694.9844     110695.0653     110695.1352     110695.1612     110695.1679     110695.1696     110695.1695     110695.1689     110695.1680    
      110695.1671     110695.1665     110695.1657     110695.1647     110695.1637     110695.1628     110695.1623     110695.1621     110695.1621     110695.1624    
      110695.1628     110695.1635     110695.1644     110695.1656     110695.1665    
1
  CONCENTRATION IN LAYER   5 AT END OF TIME STEP   4 IN STRESS PERIOD    1
  ---------------------------------------------------------------------------

                1               2               3               4               5               6               7               8               9              10
               11              12              13              14              15              16              17              18              19              20
               21              22              23              24              25
 ................................................................................................................................................................
   1  110695.1670     110695.0821     110695.1057     110695.1439     110695.1627     110695.1683     110695.1699     110695.1698     110695.1691     110695.1681    
      110695.1671     110695.1664     110695.1656     110695.1645     110695.1634     110695.1624     110695.1618     110695.1616     110695.1616     110695.1619    
      110695.1624     110695.1632     110695.1641     110695.1654     110695.1665    
1
  CONCENTRATION IN LAYER   6 AT END OF TIME STEP   4 IN STRESS PERIOD    1
  ---------------------------------------------------------------------------

                1               2               3               4               5               6               7               8               9              10
               11              12              13              14              15              16              17              18              19              20
               21              22              23              24              25
 ................................................................................................................................................................
   1  110695.1670     110695.1281     110695.1332     110695.1518     110695.1642     110695.1686     110695.1700     110695.1699     110695.1692     110695.1682    
      110695.1671     110695.1664     110695.1656     110695.1645     110695.1633     110695.1623     110695.1617     110695.1614     110695.1615     110695.1617    
      110695.1622     110695.1630     110695.1640     110695.1653     110695.1664    
1
  CONCENTRATION IN LAYER   7 AT END OF TIME STEP   4 IN STRESS PERIOD    1
  ---------------------------------------------------------------------------

                1               2               3               4               5               6               7               8               9              10
               11              12              13              14              15              16              17              18              19              20
               21              22              23              24              25
 ................................................................................................................................................................
   1  110695.1670     110695.1495     110695.1494     110695.1578     110695.1655     110695.1688     110695.1700     110695.1699     110695.1692     110695.1682    
      110695.1672     110695.1665     110695.1657     110695.1646     110695.1634     110695.1624     110695.1618     110695.1615     110695.1616     110695.1618    
      110695.1623     110695.1631     110695.1640     110695.1653     110695.1664    
1
  CONCENTRATION IN LAYER   8 AT END OF TIME STEP   4 IN STRESS PERIOD    1
  ---------------------------------------------------------------------------

                1               2               3               4               5               6               7               8               9              10
               11              12              13              14              15              16              17              18              19              20
               21              22              23              24              25
 ................................................................................................................................................................
   1  110695.1670     110695.1592     110695.1580     110695.1619     110695.1664     110695.1689     110695.1698     110695.1697     110695.1691     110695.1682    
      110695.1673     110695.1666     110695.1658     110695.1648     110695.1637     110695.1628     110695.1622     110695.1619     110695.1619     110695.1621    
      110695.1626     110695.1633     110695.1642     110695.1653     110695.1664    
1
  CONCENTRATION IN LAYER   9 AT END OF TIME STEP   4 IN STRESS PERIOD    1
  ---------------------------------------------------------------------------

                1               2               3               4               5               6               7               8               9              10
               11              12              13              14              15              16              17              18              19              20
               21              22              23              24              25
 ................................................................................................................................................................
   1  110695.1670     110695.1635     110695.1623     110695.1643     110695.1670     110695.1688     110695.1695     110695.1694     110695.1688     110695.1681    
      110695.1674     110695.1668     110695.1660     110695.1651     110695.1641     110695.1633     110695.1627     110695.1625     110695.1625     110695.1626    
      110695.1630     110695.1636     110695.1644     110695.1655     110695.1664    
1
  CONCENTRATION IN LAYER  10 AT END OF TIME STEP   4 IN STRESS PERIOD    1
  ---------------------------------------------------------------------------

                1               2               3               4               5               6               7               8               9              10
               11              12              13              14              15              16              17              18              19              20
               21              22              23              24              25
 ................................................................................................................................................................
   1  110695.1670     110695.1650     110695.1641     110695.1652     110695.1672     110695.1687     110695.1693     110695.1692     110695.1687     110695.1681    
      110695.1676     110695.1671     110695.1664     110695.1655     110695.1645     110695.1638     110695.1634     110695.1631     110695.1631     110695.1632    
      110695.1635     110695.1640     110695.1647     110695.1656     110695.1665    

 CONCENTRATION WILL BE SAVED ON UNIT **** AT END OF TIME STEP    4, STRESS PERIOD    1



         TIME SUMMARY AT END OF TIME STEP    4 IN STRESS PERIOD    1
                    SECONDS     MINUTES      HOURS       DAYS        YEARS
                    -----------------------------------------------------------
   TIME STEP LENGTH 1.72800E+06  28800.      480.00      20.000     5.47570E-02
 STRESS PERIOD TIME 6.91200E+06 1.15200E+05  1920.0      80.000     0.21903    
         TOTAL TIME 6.91200E+06 1.15200E+05  1920.0      80.000     0.21903    


end timestep


start timestep kper="1" kstp="5" mode="normal"

1
  CONCENTRATION IN LAYER   1 AT END OF TIME STEP   5 IN STRESS PERIOD    1
  ---------------------------------------------------------------------------

                1               2               3               4               5               6               7               8               9              10
               11              12              13              14              15              16              17              18              19              20
               21              22              23              24              25
 ................................................................................................................................................................
   1  110693.8729     110694.4124     110694.8720     110695.0796     110695.1466     110695.1641     110695.1681     110695.1686     110695.1684     110695.1680    
      110695.1675     110695.1670     110695.1665     110695.1658     110695.1650     110695.1644     110695.1640     110695.1637     110695.1637     110695.1638    
      110695.1640     110695.1644     110695.1650     110695.1657     110695.1664    
1
  CONCENTRATION IN LAYER   2 AT END OF TIME STEP   5 IN STRESS PERIOD    1
  ---------------------------------------------------------------------------

                1               2               3               4               5               6               7               8               9              10
               11              12              13              14              15              16              17              18              19              20
               21              22              23              24              25
 ................................................................................................................................................................
   1  110694.0358     110694.5131     110694.9038     110695.0862     110695.1478     110695.1644     110695.1683     110695.1687     110695.1685     110695.1680    
      110695.1674     110695.1669     110695.1662     110695.1655     110695.1647     110695.1640     110695.1635     110695.1633     110695.1632     110695.1634    
      110695.1636     110695.1641     110695.1648     110695.1656     110695.1664    
1
  CONCENTRATION IN LAYER   3 AT END OF TIME STEP   5 IN STRESS PERIOD    1
  ---------------------------------------------------------------------------

                1               2               3               4               5               6               7               8               9              10
               11              12              13              14              15              16              17              18              19              20
               21              22              23              24              25
 ................................................................................................................................................................
   1  110694.4214     110694.7045     110694.9587     110695.0975     110695.1499     110695.1649     110695.1686     110695.1690     110695.1687     110695.1680    
      110695.1672     110695.1666     110695.1659     110695.1650     110695.1641     110695.1633     110695.1628     110695.1625     110695.1625     110695.1627    
      110695.1631     110695.1637     110695.1644     110695.1654     110695.1663    
1
  CONCENTRATION IN LAYER   4 AT END OF TIME STEP   5 IN STRESS PERIOD    1
  ---------------------------------------------------------------------------

                1               2               3               4               5               6               7               8               9              10
               11              12              13              14              15              16              17              18              19              20
               21              22              23              24              25
 ................................................................................................................................................................
   1  110695.1670     110694.9378     110695.0208     110695.1108     110695.1525     110695.1655     110695.1689     110695.1693     110695.1689     110695.1680    
      110695.1671     110695.1663     110695.1656     110695.1646     110695.1636     110695.1627     110695.1621     110695.1618     110695.1618     110695.1620    
      110695.1625     110695.1632     110695.1641     110695.1652     110695.1663    
1
  CONCENTRATION IN LAYER   5 AT END OF TIME STEP   5 IN STRESS PERIOD    1
  ---------------------------------------------------------------------------

                1               2               3               4               5               6               7               8               9              10
               11              12              13              14              15              16              17              18              19              20
               21              22              23              24              25
 ................................................................................................................................................................
   1  110695.1670     110695.0550     110695.0765     110695.1254     110695.1555     110695.1661     110695.1692     110695.1695     110695.1690     110695.1681    
      110695.1671     110695.1662     110695.1654     110695.1644     110695.1633     110695.1623     110695.1616     110695.1613     110695.1614     110695.1616    
      110695.1621     110695.1628     110695.1638     110695.1650     110695.1662    
1
  CONCENTRATION IN LAYER   6 AT END OF TIME STEP   5 IN STRESS PERIOD    1
  ---------------------------------------------------------------------------

                1               2               3               4               5               6               7               8               9              10
               11              12              13              14              15              16              17              18              19              20
               21              22              23              24              25
 ................................................................................................................................................................
   1  110695.1670     110695.1131     110695.1152     110695.1386     110695.1585     110695.1667     110695.1694     110695.1696     110695.1691     110695.1682    
      110695.1671     110695.1662     110695.1654     110695.1644     110695.1632     110695.1622     110695.1615     110695.1611     110695.1612     110695.1614    
      110695.1619     110695.1627     110695.1636     110695.1649     110695.1662    
1
  CONCENTRATION IN LAYER   7 AT END OF TIME STEP   5 IN STRESS PERIOD    1
  ---------------------------------------------------------------------------

                1               2               3               4               5               6               7               8               9              10
               11              12              13              14              15              16              17              18              19              20
               21              22              23              24              25
 ................................................................................................................................................................
   1  110695.1670     110695.1417     110695.1384     110695.1491     110695.1612     110695.1672     110695.1694     110695.1696     110695.1691     110695.1682    
      110695.1671     110695.1663     110695.1655     110695.1645     110695.1633     110695.1623     110695.1616     110695.1612     110695.1613     110695.1615    
      110695.1619     110695.1627     110695.1636     110695.1649     110695.1662    
1
  CONCENTRATION IN LAYER   8 AT END OF TIME STEP   5 IN STRESS PERIOD    1
  ---------------------------------------------------------------------------

                1               2               3               4               5               6               7               8               9              10
               11              12              13              14              15              16              17              18              19              20
               21              22              23              24              25
 ................................................................................................................................................................
   1  110695.1670     110695.1553     110695.1515     110695.1563     110695.1633     110695.1676     110695.1694     110695.1695     110695.1690     110695.1682    
      110695.1672     110695.1664     110695.1657     110695.1647     110695.1635     110695.1626     110695.1619     110695.1616     110695.1616     110695.1618    
      110695.1622     110695.1629     110695.1638     110695.1650     110695.1662    
1
  CONCENTRATION IN LAYER   9 AT END OF TIME STEP   5 IN STRESS PERIOD    1
  ---------------------------------------------------------------------------

                1               2               3               4               5               6               7               8               9              10
               11              12              13              14              15              16              17              18              19              20
               21              22              23              24              25
 ................................................................................................................................................................
   1  110695.1670     110695.1614     110695.1583     110695.1606     110695.1647     110695.1678     110695.1693     110695.1694     110695.1689     110695.1682    
      110695.1674     110695.1667     110695.1659     110695.1649     110695.1639     110695.1630     110695.1624     110695.1620     110695.1620     110695.1622    
      110695.1625     110695.1632     110695.1640     110695.1651     110695.1662    
1
  CONCENTRATION IN LAYER  10 AT END OF TIME STEP   5 IN STRESS PERIOD    1
  ---------------------------------------------------------------------------

                1               2               3               4               5               6               7               8               9              10
               11              12              13              14              15              16              17              18              19              20
               21              22              23              24              25
 ................................................................................................................................................................
   1  110695.1670     110695.1637     110695.1612     110695.1625     110695.1654     110695.1679     110695.1692     110695.1692     110695.1689     110695.1683    
      110695.1676     110695.1669     110695.1662     110695.1653     110695.1643     110695.1635     110695.1629     110695.1626     110695.1625     110695.1626    
      110695.1629     110695.1635     110695.1642     110695.1651     110695.1662    

 CONCENTRATION WILL BE SAVED ON UNIT **** AT END OF TIME STEP    5, STRESS PERIOD    1



         TIME SUMMARY AT END OF TIME STEP    5 IN STRESS PERIOD    1
                    SECONDS     MINUTES      HOURS       DAYS        YEARS
                    -----------------------------------------------------------
   TIME STEP LENGTH 1.72800E+06  28800.      480.00      20.000     5.47570E-02
 STRESS PERIOD TIME 8.64000E+06 1.44000E+05  2400.0      100.00     0.27379    
         TOTAL TIME 8.64000E+06 1.44000E+05  2400.0      100.00     0.27379    


end timestep


start timestep kper="1" kstp="6" mode="normal"

1
  CONCENTRATION IN LAYER   1 AT END OF TIME STEP   6 IN STRESS PERIOD    1
  ---------------------------------------------------------------------------

                1               2               3               4               5               6               7               8               9              10
               11              12              13              14              15              16              17              18              19              20
               21              22              23              24              25
 ................................................................................................................................................................
   1  110693.8075     110694.3185     110694.7879     110695.0342     110695.1294     110695.1590     110695.1669     110695.1685     110695.1684     110695.1681    
      110695.1675     110695.1670     110695.1664     110695.1657     110695.1649     110695.1642     110695.1636     110695.1633     110695.1632     110695.1633    
      110695.1635     110695.1639     110695.1645     110695.1653     110695.1662    
1
  CONCENTRATION IN LAYER   2 AT END OF TIME STEP   6 IN STRESS PERIOD    1
  ---------------------------------------------------------------------------

                1               2               3               4               5               6               7               8               9              10
               11              12              13              14              15              16              17              18              19              20
               21              22              23              24              25
 ................................................................................................................................................................
   1  110693.9827     110694.4312     110694.8279     110695.0438     110695.1313     110695.1594     110695.1670     110695.1686     110695.1685     110695.1681    
      110695.1674     110695.1668     110695.1661     110695.1654     110695.1645     110695.1638     110695.1632     110695.1629     110695.1628     110695.1629    
      110695.1632     110695.1637     110695.1644     110695.1652     110695.1662    
1
  CONCENTRATION IN LAYER   3 AT END OF TIME STEP   6 IN STRESS PERIOD    1
  ---------------------------------------------------------------------------

                1               2               3               4               5               6               7               8               9              10
               11              12              13              14              15              16              17              18              19              20
               21              22              23              24              25
 ................................................................................................................................................................
   1  110694.3913     110694.6432     110694.8967     110695.0604     110695.1348     110695.1602     110695.1673     110695.1687     110695.1686     110695.1680    
      110695.1672     110695.1665     110695.1658     110695.1650     110695.1640     110695.1632     110695.1626     110695.1622     110695.1622     110695.1623    
      110695.1627     110695.1633     110695.1640     110695.1651     110695.1661    
1
  CONCENTRATION IN LAYER   4 AT END OF TIME STEP   6 IN STRESS PERIOD    1
  ---------------------------------------------------------------------------

                1               2               3               4               5               6               7               8               9              10
               11              12              13              14              15              16              17              18              19              20
               21              22              23              24              25
 ................................................................................................................................................................
   1  110695.1670     110694.8980     110694.9758     110695.0804     110695.1394     110695.1612     110695.1676     110695.1689     110695.1687     110695.1680    
      110695.1671     110695.1663     110695.1655     110695.1646     110695.1636     110695.1626     110695.1619     110695.1616     110695.1616     110695.1618    
      110695.1622     110695.1628     110695.1637     110695.1649     110695.1660    
1
  CONCENTRATION IN LAYER   5 AT END OF TIME STEP   6 IN STRESS PERIOD    1
  ---------------------------------------------------------------------------

                1               2               3               4               5               6               7               8               9              10
               11              12              13              14              15              16              17              18              19              20
               21              22              23              24              25
 ................................................................................................................................................................
   1  110695.1670     110695.0306     110695.0461     110695.1020     110695.1446     110695.1623     110695.1680     110695.1691     110695.1688     110695.1681    
      110695.1670     110695.1661     110695.1653     110695.1643     110695.1633     110695.1623     110695.1615     110695.1611     110695.1611     110695.1613    
      110695.1618     110695.1625     110695.1634     110695.1647     110695.1660    
1
  CONCENTRATION IN LAYER   6 AT END OF TIME STEP   6 IN STRESS PERIOD    1
  ---------------------------------------------------------------------------

                1               2               3               4               5               6               7               8               9              10
               11              12              13              14              15              16              17              18              19              20
               21              22              23              24              25
 ................................................................................................................................................................
   1  110695.1670     110695.0992     110695.0952     110695.1219     110695.1499     110695.1635     110695.1683     110695.1692     110695.1689     110695.1681    
      110695.1671     110695.1661     110695.1653     110695.1643     110695.1632     110695.1621     110695.1614     110695.1609     110695.1609     110695.1611    
      110695.1616     110695.1623     110695.1633     110695.1646     110695.1659    
1
  CONCENTRATION IN LAYER   7 AT END OF TIME STEP   6 IN STRESS PERIOD    1
  ---------------------------------------------------------------------------

                1               2               3               4               5               6               7               8               9              10
               11              12              13              14              15              16              17              18              19              20
               21              22              23              24              25
 ................................................................................................................................................................
   1  110695.1670     110695.1341     110695.1256     110695.1378     110695.1547     110695.1646     110695.1685     110695.1693     110695.1690     110695.1681    
      110695.1671     110695.1662     110695.1654     110695.1644     110695.1632     110695.1622     110695.1614     110695.1610     110695.1610     110695.1612    
      110695.1616     110695.1624     110695.1633     110695.1646     110695.1659    
1
  CONCENTRATION IN LAYER   8 AT END OF TIME STEP   6 IN STRESS PERIOD    1
  ---------------------------------------------------------------------------

                1               2               3               4               5               6               7               8               9              10
               11              12              13              14              15              16              17              18              19              20
               21              22              23              24              25
 ................................................................................................................................................................
   1  110695.1670     110695.1512     110695.1435     110695.1488     110695.1585     110695.1654     110695.1686     110695.1692     110695.1689     110695.1682    
      110695.1672     110695.1664     110695.1655     110695.1646     110695.1635     110695.1625     110695.1617     110695.1613     110695.1613     110695.1614    
      110695.1618     110695.1625     110695.1634     110695.1646     110695.1659    
1
  CONCENTRATION IN LAYER   9 AT END OF TIME STEP   6 IN STRESS PERIOD    1
  ---------------------------------------------------------------------------

                1               2               3               4               5               6               7               8               9              10
               11              12              13              14              15              16              17              18              19              20
               21              22              23              24              25
 ................................................................................................................................................................
   1  110695.1670     110695.1591     110695.1532     110695.1554     110695.1611     110695.1660     110695.1686     110695.1692     110695.1689     110695.1682    
      110695.1674     110695.1666     110695.1658     110695.1648     110695.1638     110695.1628     110695.1621     110695.1617     110695.1616     110695.1618    
[...]
      110694.8066     110694.8117     110694.8194     110694.8304     110694.8487    
1
  CONCENTRATION IN LAYER   9 AT END OF TIME STEP  99 IN STRESS PERIOD    1
  ---------------------------------------------------------------------------

                1               2               3               4               5               6               7               8               9              10
               11              12              13              14              15              16              17              18              19              20
               21              22              23              24              25
 ................................................................................................................................................................
   1  110695.1670     110695.1427     110695.0869     110695.0198     110694.9603     110694.9142     110694.8806     110694.8568     110694.8399     110694.8280    
      110694.8197     110694.8137     110694.8094     110694.8063     110694.8041     110694.8024     110694.8015     110694.8015     110694.8020     110694.8036    
      110694.8067     110694.8118     110694.8195     110694.8304     110694.8487    
1
  CONCENTRATION IN LAYER  10 AT END OF TIME STEP  99 IN STRESS PERIOD    1
  ---------------------------------------------------------------------------

                1               2               3               4               5               6               7               8               9              10
               11              12              13              14              15              16              17              18              19              20
               21              22              23              24              25
 ................................................................................................................................................................
   1  110695.1670     110695.1487     110695.1012     110695.0370     110694.9754     110694.9258     110694.8890     110694.8627     110694.8441     110694.8310    
      110694.8217     110694.8152     110694.8105     110694.8071     110694.8046     110694.8028     110694.8018     110694.8017     110694.8022     110694.8038    
      110694.8068     110694.8119     110694.8195     110694.8304     110694.8487    

 CONCENTRATION WILL BE SAVED ON UNIT **** AT END OF TIME STEP   99, STRESS PERIOD    1



         TIME SUMMARY AT END OF TIME STEP   99 IN STRESS PERIOD    1
                    SECONDS     MINUTES      HOURS       DAYS        YEARS
                    -----------------------------------------------------------
   TIME STEP LENGTH 1.72800E+06  28800.      480.00      20.000     5.47570E-02
 STRESS PERIOD TIME 1.71072E+08 2.85120E+06  47520.      1980.0      5.4209    
         TOTAL TIME 1.71072E+08 2.85120E+06  47520.      1980.0      5.4209    


end timestep


start timestep kper="1" kstp="100" mode="normal"


 SSM PACKAGE (SSM) FLOW RATES   PERIOD      1   STEP      100
 ------------------------------------------------------------------------------------------------
   NUMBER   CELLID                   BOUND Q        SSM CONC          RATE         PACKAGE NAME  
 ------------------------------------------------------------------------------------------------
     1      (4,1,1)               0.0000000       0.0000000       0.0000000            CHD       
     2      (5,1,1)               0.0000000       0.0000000       0.0000000            CHD       
     3      (6,1,1)               0.0000000       0.0000000       0.0000000            CHD       
     4      (7,1,1)               0.0000000       0.0000000       0.0000000            CHD       
     5      (8,1,1)               0.0000000       0.0000000       0.0000000            CHD       
     6      (9,1,1)               0.0000000       0.0000000       0.0000000            CHD       
     7      (10,1,1)              0.0000000       0.0000000       0.0000000            CHD       
     8      (1,1,25)             -2.08333338E-02  110694.84      -2306.1426            CHD       
     9      (2,1,25)             -2.08333338E-02  110694.84      -2306.1426            CHD       
     10     (3,1,25)             -2.08333338E-02  110694.84      -2306.1426            CHD       
     11     (4,1,25)             -2.08333338E-02  110694.84      -2306.1426            CHD       
     12     (5,1,25)             -2.08333338E-02  110694.84      -2306.1426            CHD       
     13     (6,1,25)             -2.08333338E-02  110694.84      -2306.1426            CHD       
     14     (7,1,25)             -2.08333338E-02  110694.84      -2306.1426            CHD       
     15     (8,1,25)             -2.08333338E-02  110694.84      -2306.1426            CHD       
     16     (9,1,25)             -2.08333338E-02  110694.84      -2306.1426            CHD       
     17     (10,1,25)            -2.08333338E-02  110694.84      -2306.1426            CHD       
     1      (1,1,1)               2.08333329E-02  110692.76       2306.0991          CHDTAIL     
     2      (2,1,1)               2.08333329E-02  110692.76       2306.0991          CHDTAIL     
     3      (3,1,1)               2.08333329E-02  110692.76       2306.0991          CHDTAIL     
 ------------------------------------------------------------------------------------------------




 CNC PACKAGE (CNC) FLOW RATES   PERIOD      1   STEP      100
 -----------------------------------------------
   NUMBER   CELLID                    RATE      
 -----------------------------------------------
     1      (4,1,1)               2306.2215     
     2      (5,1,1)               2306.1504     
     3      (6,1,1)               2306.1499     
     4      (7,1,1)               2306.1496     
     5      (8,1,1)               2306.1495     
     6      (9,1,1)               2306.1494     
     7      (10,1,1)              2306.1494     
 -----------------------------------------------



1
  CONCENTRATION IN LAYER   1 AT END OF TIME STEP 100 IN STRESS PERIOD    1
  ---------------------------------------------------------------------------

                1               2               3               4               5               6               7               8               9              10
               11              12              13              14              15              16              17              18              19              20
               21              22              23              24              25
 ................................................................................................................................................................
   1  110693.6641     110694.0486     110694.3551     110694.5231     110694.6180     110694.6769     110694.7157     110694.7421     110694.7602     110694.7727    
      110694.7813     110694.7871     110694.7910     110694.7937     110694.7954     110694.7965     110694.7975     110694.7984     110694.7998     110694.8018    
      110694.8050     110694.8098     110694.8169     110694.8271     110694.8442    
1
  CONCENTRATION IN LAYER   2 AT END OF TIME STEP 100 IN STRESS PERIOD    1
  ---------------------------------------------------------------------------

                1               2               3               4               5               6               7               8               9              10
               11              12              13              14              15              16              17              18              19              20
               21              22              23              24              25
 ................................................................................................................................................................
   1  110693.8663     110694.1923     110694.4249     110694.5577     110694.6379     110694.6896     110694.7243     110694.7480     110694.7643     110694.7755    
      110694.7832     110694.7884     110694.7919     110694.7942     110694.7958     110694.7968     110694.7976     110694.7985     110694.7998     110694.8018    
      110694.8050     110694.8098     110694.8169     110694.8271     110694.8442    
1
  CONCENTRATION IN LAYER   3 AT END OF TIME STEP 100 IN STRESS PERIOD    1
  ---------------------------------------------------------------------------

                1               2               3               4               5               6               7               8               9              10
               11              12              13              14              15              16              17              18              19              20
               21              22              23              24              25
 ................................................................................................................................................................
   1  110694.3250     110694.4572     110694.5462     110694.6202     110694.6750     110694.7137     110694.7406     110694.7592     110694.7720     110694.7808    
      110694.7868     110694.7909     110694.7936     110694.7954     110694.7965     110694.7973     110694.7979     110694.7987     110694.7999     110694.8019    
      110694.8050     110694.8098     110694.8169     110694.8271     110694.8442    
1
  CONCENTRATION IN LAYER   4 AT END OF TIME STEP 100 IN STRESS PERIOD    1
  ---------------------------------------------------------------------------

                1               2               3               4               5               6               7               8               9              10
               11              12              13              14              15              16              17              18              19              20
               21              22              23              24              25
 ................................................................................................................................................................
   1  110695.1670     110694.7711     110694.6876     110694.7002     110694.7246     110694.7465     110694.7629     110694.7746     110694.7827     110694.7882    
      110694.7919     110694.7944     110694.7960     110694.7970     110694.7976     110694.7980     110694.7984     110694.7990     110694.8001     110694.8020    
      110694.8051     110694.8099     110694.8169     110694.8271     110694.8442    
1
  CONCENTRATION IN LAYER   5 AT END OF TIME STEP 100 IN STRESS PERIOD    1
  ---------------------------------------------------------------------------

                1               2               3               4               5               6               7               8               9              10
               11              12              13              14              15              16              17              18              19              20
               21              22              23              24              25
 ................................................................................................................................................................
   1  110695.1670     110694.9492     110694.8194     110694.7848     110694.7814     110694.7847     110694.7892     110694.7928     110694.7953     110694.7970    
      110694.7980     110694.7986     110694.7989     110694.7990     110694.7990     110694.7989     110694.7990     110694.7995     110694.8004     110694.8022    
      110694.8052     110694.8099     110694.8170     110694.8271     110694.8442    
1
  CONCENTRATION IN LAYER   6 AT END OF TIME STEP 100 IN STRESS PERIOD    1
  ---------------------------------------------------------------------------

                1               2               3               4               5               6               7               8               9              10
               11              12              13              14              15              16              17              18              19              20
               21              22              23              24              25
 ................................................................................................................................................................
   1  110695.1670     110695.0472     110694.9262     110694.8648     110694.8378     110694.8242     110694.8167     110694.8119     110694.8086     110694.8062    
      110694.8044     110694.8031     110694.8020     110694.8011     110694.8004     110694.7999     110694.7997     110694.7999     110694.8007     110694.8024    
      110694.8053     110694.8100     110694.8170     110694.8272     110694.8442    
1
  CONCENTRATION IN LAYER   7 AT END OF TIME STEP 100 IN STRESS PERIOD    1
  ---------------------------------------------------------------------------

                1               2               3               4               5               6               7               8               9              10
               11              12              13              14              15              16              17              18              19              20
               21              22              23              24              25
 ................................................................................................................................................................
   1  110695.1670     110695.1001     110695.0040     110694.9329     110694.8890     110694.8611     110694.8427     110694.8300     110694.8212     110694.8150    
      110694.8106     110694.8073     110694.8050     110694.8032     110694.8019     110694.8009     110694.8003     110694.8004     110694.8011     110694.8026    
      110694.8055     110694.8101     110694.8171     110694.8272     110694.8442    
1
  CONCENTRATION IN LAYER   8 AT END OF TIME STEP 100 IN STRESS PERIOD    1
  ---------------------------------------------------------------------------

                1               2               3               4               5               6               7               8               9              10
               11              12              13              14              15              16              17              18              19              20
               21              22              23              24              25
 ................................................................................................................................................................
   1  110695.1670     110695.1283     110695.0559     110694.9851     110694.9309     110694.8920     110694.8647     110694.8455     110694.8320     110694.8225    
      110694.8158     110694.8110     110694.8075     110694.8050     110694.8031     110694.8018     110694.8009     110694.8009     110694.8014     110694.8028    
      110694.8056     110694.8102     110694.8171     110694.8272     110694.8443    
1
  CONCENTRATION IN LAYER   9 AT END OF TIME STEP 100 IN STRESS PERIOD    1
  ---------------------------------------------------------------------------

                1               2               3               4               5               6               7               8               9              10
               11              12              13              14              15              16              17              18              19              20
               21              22              23              24              25
 ................................................................................................................................................................
   1  110695.1670     110695.1427     110695.0869     110695.0198     110694.9603     110694.9142     110694.8806     110694.8568     110694.8399     110694.8281    
      110694.8197     110694.8137     110694.8094     110694.8063     110694.8041     110694.8024     110694.8014     110694.8013     110694.8017     110694.8030    
      110694.8057     110694.8103     110694.8172     110694.8273     110694.8443    
1
  CONCENTRATION IN LAYER  10 AT END OF TIME STEP 100 IN STRESS PERIOD    1
  ---------------------------------------------------------------------------

                1               2               3               4               5               6               7               8               9              10
               11              12              13              14              15              16              17              18              19              20
               21              22              23              24              25
 ................................................................................................................................................................
   1  110695.1670     110695.1487     110695.1012     110695.0370     110694.9754     110694.9258     110694.8890     110694.8627     110694.8441     110694.8310    
      110694.8217     110694.8152     110694.8105     110694.8071     110694.8046     110694.8028     110694.8017     110694.8015     110694.8019     110694.8032    
      110694.8058     110694.8103     110694.8172     110694.8273     110694.8443    

 CONCENTRATION WILL BE SAVED ON UNIT **** AT END OF TIME STEP  100, STRESS PERIOD    1


  MASS BUDGET FOR ENTIRE MODEL AT END OF TIME STEP  100, STRESS PERIOD   1
  ---------------------------------------------------------------------------------------------------

     CUMULATIVE MASS      M       RATES FOR THIS TIME STEP      M/T          PACKAGE NAME    
     ------------------                 ------------------------                     ----------------

           IN:                                      IN:
           ---                                      ---
     STORAGE-AQUEOUS =         127.1583       STORAGE-AQUEOUS =       9.5951E-03     MST                              
                 CHD =           0.0000                   CHD =           0.0000     SSM_CHD                          
                 CHD =    13836594.4252                   CHD =        6918.2973     SSM_CHDTAIL                      
                 CNC =    32286235.8795                   CNC =       16143.1196     CNC                              

            TOTAL IN =    46122957.4630              TOTAL IN =       23061.4265

          OUT:                                     OUT:
          ----                                     ----
     STORAGE-AQUEOUS =           0.4927       STORAGE-AQUEOUS =       6.6724E-05     MST                              
                 CHD =    46122956.9703                   CHD =       23061.4264     SSM_CHD                          
                 CHD =           0.0000                   CHD =           0.0000     SSM_CHDTAIL                      
                 CNC =           0.0000                   CNC =           0.0000     CNC                              

           TOTAL OUT =    46122957.4630             TOTAL OUT =       23061.4265

            IN - OUT =       1.0282E-06              IN - OUT =      -2.3210E-09

 PERCENT DISCREPANCY =           0.00     PERCENT DISCREPANCY =          -0.00




         TIME SUMMARY AT END OF TIME STEP  100 IN STRESS PERIOD    1
                    SECONDS     MINUTES      HOURS       DAYS        YEARS
                    -----------------------------------------------------------
   TIME STEP LENGTH 1.72800E+06  28800.      480.00      20.000     5.47570E-02
 STRESS PERIOD TIME 1.72800E+08 2.88000E+06  48000.      2000.0      5.4757    
         TOTAL TIME 1.72800E+08 2.88000E+06  48000.      2000.0      5.4757    


end timestep

