                                   MODFLOW 6
                U.S. GEOLOGICAL SURVEY MODULAR HYDROLOGIC MODEL
                       GROUNDWATER TRANSPORT MODEL (GWT)
                VERSION 6.5.0.dev0+prt (preliminary) 10/07/2023
                               ***DEVELOP MODE***

   MODFLOW 6 compiled Oct 07 2023 02:19:02 with Intel(R) Fortran Intel(R) 64
   Compiler Classic for applications running on Intel(R) 64, Version 2021.7.0
                             Build 20220726_000000

This software is preliminary or provisional and is subject to 
revision. It is being provided to meet the need for timely best 
science. The software has not received final approval by the U.S. 
Geological Survey (USGS). No warranty, expressed or implied, is made 
by the USGS or the U.S. Government as to the functionality of the 
software and related material nor shall the fact of release 
constitute any such warranty. The software is provided on the 
condition that neither the USGS nor the U.S. Government shall be held 
liable for any damages resulting from the authorized or unauthorized 
use of the software.


As a work of the United States Government, this USGS product is 
in the public domain within the United States. You can copy, 
modify, distribute, and perform the work, even for commercial 
purposes, all without asking permission. Additionally, USGS 
waives copyright and related rights in the work worldwide 
through CC0 1.0 Universal Public Domain Dedication 
(https://creativecommons.org/publicdomain/zero/1.0/).

The following GNU Lesser General Public License (LGPL) libraries
are used in this USGS product:

    SPARSKIT version 2.0
      ilut, luson, and qsplit 
      (https://www-users.cse.umn.edu/~saad/software/SPARSKIT/)

    RCM - Reverse Cuthill McKee Ordering
      (https://people.math.sc.edu/Burkardt/f_src/rcm/rcm.html)

    BLAS - Basic Linear Algebra Subprograms Level 1
      (https://people.math.sc.edu/Burkardt/f_src/blas1_d/blas1_d.html)

    SPARSEKIT - Sparse Matrix Utility Package
      amux, dperm, dvperm, rperm, and cperm
      (https://people.sc.fsu.edu/~jburkardt/f77_src/sparsekit/sparsekit.html)

The following BSD-3 License libraries are used in this USGS product:

    Modern Fortran DAG Library
      Copyright (c) 2018, Jacob Williams
      All rights reserved.
      (https://github.com/jacobwilliams/daglib)

MODFLOW 6 compiler options: /Isrc\libmf6core.a.p /Isrc /I..\src
/Isrc\libmf6_external.a.p /MTd /nologo /warn:general /warn:truncated_source
/stand:f08 /Zi /traceback /O2 /fpe:0 /heap-arrays:0 /traceback /fpp
/Qdiag-disable:7416 /Qdiag-disable:7025 /Qdiag-disable:5268
/Fdsrc\libmf6core.a.p\Utilities_compilerversion.F90.pdb
/module:src\libmf6core.a.p
/Fosrc/libmf6core.a.p/Utilities_compilerversion.F90.obj /c

System command used to initiate simulation:
c:\Users\portega\anaconda3\envs\mf6rtm\python.exe -m ipykernel_launcher --f=c:\Users\portega\AppData\Roaming\jupyter\runtime\kernel-v2-11124I64NdprUiCNJ.json

MODFLOW was compiled using uniform precision.

Real Variables
  KIND: 8
  TINY (smallest non-zero value):    2.225074-308
  HUGE (largest value):    1.797693+308
  PRECISION: 15
  SIZE IN BITS: 64

Integer Variables
  KIND: 4
  HUGE (largest value): 2147483647
  SIZE IN BITS: 32

Long Integer Variables
  KIND: 8
  HUGE (largest value): 9223372036854775807
  SIZE IN BITS: 64

Logical Variables
  KIND: 4
  SIZE IN BITS: 32
 
 NAMEFILE OPTIONS:
 END NAMEFILE OPTIONS:

 DIS -- STRUCTURED GRID DISCRETIZATION PACKAGE, VERSION 2 : 3/27/2014 - INPUT READ FROM MEMPATH: __INPUT__/H/DIS                                   


 DSP-- DISPERSION PACKAGE, VERSION 1, 1/24/2018 INPUT READ FROM MEMPATH: __INPUT__/H/DSP                                   


 Setting Discretization Options
    Model length unit [0=UND, 1=FEET, 2=METERS, 3=CENTIMETERS] set as 2
 End Setting Discretization Options

 Setting Discretization Dimensions
    NLAY = 10
    NROW = 1
    NCOL = 25
 End Setting Discretization Dimensions

 Setting Discretization Griddata
    DELR set from input file
    DELC set from input file
    TOP set from input file
    BOTM set from input file
    IDOMAIN set from input file
 End Setting Discretization Griddata


 FMI -- FLOW MODEL INTERFACE,' VERSION 2, 8/17/2023
  FLOWS PROVIDED BY A GWF MODEL IN THIS SIMULATION

 ADV-- ADVECTION PACKAGE, VERSION 1, 8/25/2017 INPUT READ FROM UNIT 9113


 # File generated by Flopy version 3.5.0.dev0 on 05/31/2024 at 15:05:31.
 PROCESSING ADVECTION OPTIONS
    ADVECTION WEIGHTING SCHEME HAS BEEN SET TO: TVD
 END OF ADVECTION OPTIONS
 Setting DSP Options
    XT3D formulation [0=INACTIVE, 1=ACTIVE, 3=ACTIVE RHS] set to: 0
 End Setting DSP Options

 Setting DSP Griddata
    ALH set from input file
    ATH1 set from input file
    ATV set from input file
 End Setting DSP Griddata


 CNC   -- CNC PACKAGE, VERSION 8, 2/22/2014 INPUT READ FROM UNIT 9147
 # File generated by Flopy version 3.5.0.dev0 on 05/31/2024 at 15:05:31.

 PROCESSING CNC OPTIONS
 END OF CNC OPTIONS

 PROCESSING CNC DIMENSIONS
    MAXBOUND =       7
 END OF CNC DIMENSIONS

 IC -- INITIAL CONDITIONS PACKAGE, VERSION 8, 3/28/2015 INPUT READ FROM UNIT 9111
 # File generated by Flopy version 3.5.0.dev0 on 05/31/2024 at 15:05:31.
 PROCESSING GRIDDATA

 OPENED H.ic_strt_layer1.txt
 FILE TYPE:OPEN/CLOSE   UNIT 9990   STATUS:OLD                 
 FORMAT:FORMATTED              ACCESS:SEQUENTIAL          
 ACTION:READ                


 OPENED H.ic_strt_layer2.txt
 FILE TYPE:OPEN/CLOSE   UNIT 9991   STATUS:OLD                 
 FORMAT:FORMATTED              ACCESS:SEQUENTIAL          
 ACTION:READ                


 OPENED H.ic_strt_layer3.txt
 FILE TYPE:OPEN/CLOSE   UNIT 9992   STATUS:OLD                 
 FORMAT:FORMATTED              ACCESS:SEQUENTIAL          
 ACTION:READ                


 OPENED H.ic_strt_layer4.txt
 FILE TYPE:OPEN/CLOSE   UNIT 9993   STATUS:OLD                 
 FORMAT:FORMATTED              ACCESS:SEQUENTIAL          
 ACTION:READ                


 OPENED H.ic_strt_layer5.txt
 FILE TYPE:OPEN/CLOSE   UNIT 9994   STATUS:OLD                 
 FORMAT:FORMATTED              ACCESS:SEQUENTIAL          
 ACTION:READ                


 OPENED H.ic_strt_layer6.txt
 FILE TYPE:OPEN/CLOSE   UNIT 9995   STATUS:OLD                 
 FORMAT:FORMATTED              ACCESS:SEQUENTIAL          
 ACTION:READ                


 OPENED H.ic_strt_layer7.txt
 FILE TYPE:OPEN/CLOSE   UNIT 9996   STATUS:OLD                 
 FORMAT:FORMATTED              ACCESS:SEQUENTIAL          
 ACTION:READ                


 OPENED H.ic_strt_layer8.txt
 FILE TYPE:OPEN/CLOSE   UNIT 9997   STATUS:OLD                 
 FORMAT:FORMATTED              ACCESS:SEQUENTIAL          
 ACTION:READ                


 OPENED H.ic_strt_layer9.txt
 FILE TYPE:OPEN/CLOSE   UNIT 9998   STATUS:OLD                 
 FORMAT:FORMATTED              ACCESS:SEQUENTIAL          
 ACTION:READ                


 OPENED H.ic_strt_layer10.txt
 FILE TYPE:OPEN/CLOSE   UNIT 9999   STATUS:OLD                 
 FORMAT:FORMATTED              ACCESS:SEQUENTIAL          
 ACTION:READ                

 END PROCESSING GRIDDATA

 MST -- MOBILE STORAGE AND TRANSFER PACKAGE, VERSION 1, 7/29/2020 INPUT READ FROM UNIT 9112


 # File generated by Flopy version 3.5.0.dev0 on 05/31/2024 at 15:05:31.
 PROCESSING MOBILE STORAGE AND TRANSFER OPTIONS
 END OF MOBILE STORAGE AND TRANSFER OPTIONS
 PROCESSING GRIDDATA

 OPENED H.mst_porosity.txt
 FILE TYPE:OPEN/CLOSE   UNIT ****   STATUS:OLD                 
 FORMAT:FORMATTED              ACCESS:SEQUENTIAL          
 ACTION:READ                

 END PROCESSING GRIDDATA

 SSM -- SOURCE-SINK MIXING PACKAGE, VERSION 1, 8/25/2017 INPUT READ FROM UNIT 9145


 # File generated by Flopy version 3.5.0.dev0 on 05/31/2024 at 15:05:31.
 PROCESSING SSM OPTIONS
 END OF SSM OPTIONS

 OPENED H.ssm_sources.txt
 FILE TYPE:OPEN/CLOSE   UNIT ****   STATUS:OLD                 
 FORMAT:FORMATTED              ACCESS:SEQUENTIAL          
 ACTION:READ                

 PROCESSING SOURCES
 AUX SOURCE DETECTED.
    USING AUX COLUMN 1 IN PACKAGE CHDTAIL
 END PROCESSING SOURCES
 OPTIONAL FILEINPUT BLOCK NOT FOUND.  CONTINUING.
      THE LAST TIME STEP WILL BE PRINTED
      THE LAST TIME STEP WILL BE PRINTED
 # File generated by Flopy version 3.5.0.dev0 on 05/31/2024 at 15:05:31.

 PROCESSING OC OPTIONS

    BUDGET INFORMATION WILL BE WRITTEN TO:
      UNIT NUMBER: 10002
      FILE NAME: H.cbb

 OPENED H.cbb
 FILE TYPE:DATA(BINARY)   UNIT ****   STATUS:REPLACE             
 FORMAT:UNFORMATTED            ACCESS:STREAM              
 ACTION:READWRITE           

    CONCENTRATION INFORMATION WILL BE WRITTEN TO:
      UNIT NUMBER: 10003
      FILE NAME: H.ucn

 OPENED H.ucn
 FILE TYPE:DATA(BINARY)   UNIT ****   STATUS:REPLACE             
 FORMAT:UNFORMATTED            ACCESS:STREAM              
 ACTION:READWRITE           

 END OF OC OPTIONS

start timestep kper="1" kstp="1" mode="normal"


 BEGIN READING OUTPUT CONTROL FOR STRESS PERIOD 1
      ALL TIME STEPS WILL BE SAVED
      THE LAST TIME STEP WILL BE PRINTED

 END READING OUTPUT CONTROL FOR STRESS PERIOD 1

 OPENED H.cnc_stress_period_data_1.txt
 FILE TYPE:OPEN/CLOSE   UNIT ****   STATUS:OLD                 
 FORMAT:FORMATTED              ACCESS:SEQUENTIAL          
 ACTION:READ                


 CONCENTRATION WILL BE SAVED ON UNIT **** AT END OF TIME STEP    1, STRESS PERIOD    1

end timestep


start timestep kper="1" kstp="2" mode="normal"


 CONCENTRATION WILL BE SAVED ON UNIT **** AT END OF TIME STEP    2, STRESS PERIOD    1

end timestep


start timestep kper="1" kstp="3" mode="normal"


 CONCENTRATION WILL BE SAVED ON UNIT **** AT END OF TIME STEP    3, STRESS PERIOD    1

end timestep


start timestep kper="1" kstp="4" mode="normal"


 CONCENTRATION WILL BE SAVED ON UNIT **** AT END OF TIME STEP    4, STRESS PERIOD    1

end timestep


start timestep kper="1" kstp="5" mode="normal"


 CONCENTRATION WILL BE SAVED ON UNIT **** AT END OF TIME STEP    5, STRESS PERIOD    1

end timestep


start timestep kper="1" kstp="6" mode="normal"


 CONCENTRATION WILL BE SAVED ON UNIT **** AT END OF TIME STEP    6, STRESS PERIOD    1

end timestep


start timestep kper="1" kstp="7" mode="normal"


 CONCENTRATION WILL BE SAVED ON UNIT **** AT END OF TIME STEP    7, STRESS PERIOD    1

end timestep


start timestep kper="1" kstp="8" mode="normal"


 CONCENTRATION WILL BE SAVED ON UNIT **** AT END OF TIME STEP    8, STRESS PERIOD    1

end timestep


start timestep kper="1" kstp="9" mode="normal"


 CONCENTRATION WILL BE SAVED ON UNIT **** AT END OF TIME STEP    9, STRESS PERIOD    1

end timestep


start timestep kper="1" kstp="10" mode="normal"


 CONCENTRATION WILL BE SAVED ON UNIT **** AT END OF TIME STEP   10, STRESS PERIOD    1

end timestep


start timestep kper="1" kstp="11" mode="normal"


 CONCENTRATION WILL BE SAVED ON UNIT **** AT END OF TIME STEP   11, STRESS PERIOD    1

end timestep


start timestep kper="1" kstp="12" mode="normal"


 CONCENTRATION WILL BE SAVED ON UNIT **** AT END OF TIME STEP   12, STRESS PERIOD    1

end timestep


start timestep kper="1" kstp="13" mode="normal"


 CONCENTRATION WILL BE SAVED ON UNIT **** AT END OF TIME STEP   13, STRESS PERIOD    1

end timestep


start timestep kper="1" kstp="14" mode="normal"


 CONCENTRATION WILL BE SAVED ON UNIT **** AT END OF TIME STEP   14, STRESS PERIOD    1

end timestep


start timestep kper="1" kstp="15" mode="normal"


 CONCENTRATION WILL BE SAVED ON UNIT **** AT END OF TIME STEP   15, STRESS PERIOD    1

end timestep


start timestep kper="1" kstp="16" mode="normal"


 CONCENTRATION WILL BE SAVED ON UNIT **** AT END OF TIME STEP   16, STRESS PERIOD    1

end timestep


start timestep kper="1" kstp="17" mode="normal"


 CONCENTRATION WILL BE SAVED ON UNIT **** AT END OF TIME STEP   17, STRESS PERIOD    1

end timestep


start timestep kper="1" kstp="18" mode="normal"


 CONCENTRATION WILL BE SAVED ON UNIT **** AT END OF TIME STEP   18, STRESS PERIOD    1

end timestep


start timestep kper="1" kstp="19" mode="normal"


 CONCENTRATION WILL BE SAVED ON UNIT **** AT END OF TIME STEP   19, STRESS PERIOD    1

end timestep


start timestep kper="1" kstp="20" mode="normal"


 CONCENTRATION WILL BE SAVED ON UNIT **** AT END OF TIME STEP   20, STRESS PERIOD    1

end timestep


start timestep kper="1" kstp="21" mode="normal"


 CONCENTRATION WILL BE SAVED ON UNIT **** AT END OF TIME STEP   21, STRESS PERIOD    1

end timestep


start timestep kper="1" kstp="22" mode="normal"


 CONCENTRATION WILL BE SAVED ON UNIT **** AT END OF TIME STEP   22, STRESS PERIOD    1

end timestep


start timestep kper="1" kstp="23" mode="normal"


 CONCENTRATION WILL BE SAVED ON UNIT **** AT END OF TIME STEP   23, STRESS PERIOD    1

end timestep


start timestep kper="1" kstp="24" mode="normal"


 CONCENTRATION WILL BE SAVED ON UNIT **** AT END OF TIME STEP   24, STRESS PERIOD    1

end timestep


start timestep kper="1" kstp="25" mode="normal"


 CONCENTRATION WILL BE SAVED ON UNIT **** AT END OF TIME STEP   25, STRESS PERIOD    1

end timestep


start timestep kper="1" kstp="26" mode="normal"


 CONCENTRATION WILL BE SAVED ON UNIT **** AT END OF TIME STEP   26, STRESS PERIOD    1

end timestep


start timestep kper="1" kstp="27" mode="normal"


 CONCENTRATION WILL BE SAVED ON UNIT **** AT END OF TIME STEP   27, STRESS PERIOD    1

end timestep


start timestep kper="1" kstp="28" mode="normal"


 CONCENTRATION WILL BE SAVED ON UNIT **** AT END OF TIME STEP   28, STRESS PERIOD    1

end timestep


start timestep kper="1" kstp="29" mode="normal"


 CONCENTRATION WILL BE SAVED ON UNIT **** AT END OF TIME STEP   29, STRESS PERIOD    1

end timestep


start timestep kper="1" kstp="30" mode="normal"


 CONCENTRATION WILL BE SAVED ON UNIT **** AT END OF TIME STEP   30, STRESS PERIOD    1

end timestep


start timestep kper="1" kstp="31" mode="normal"


 CONCENTRATION WILL BE SAVED ON UNIT **** AT END OF TIME STEP   31, STRESS PERIOD    1

end timestep


start timestep kper="1" kstp="32" mode="normal"


 CONCENTRATION WILL BE SAVED ON UNIT **** AT END OF TIME STEP   32, STRESS PERIOD    1

end timestep


start timestep kper="1" kstp="33" mode="normal"


 CONCENTRATION WILL BE SAVED ON UNIT **** AT END OF TIME STEP   33, STRESS PERIOD    1

end timestep


start timestep kper="1" kstp="34" mode="normal"


 CONCENTRATION WILL BE SAVED ON UNIT **** AT END OF TIME STEP   34, STRESS PERIOD    1

end timestep


start timestep kper="1" kstp="35" mode="normal"


 CONCENTRATION WILL BE SAVED ON UNIT **** AT END OF TIME STEP   35, STRESS PERIOD    1

end timestep


start timestep kper="1" kstp="36" mode="normal"


 CONCENTRATION WILL BE SAVED ON UNIT **** AT END OF TIME STEP   36, STRESS PERIOD    1

end timestep


start timestep kper="1" kstp="37" mode="normal"


 CONCENTRATION WILL BE SAVED ON UNIT **** AT END OF TIME STEP   37, STRESS PERIOD    1

end timestep


start timestep kper="1" kstp="38" mode="normal"


 CONCENTRATION WILL BE SAVED ON UNIT **** AT END OF TIME STEP   38, STRESS PERIOD    1

end timestep


start timestep kper="1" kstp="39" mode="normal"


 CONCENTRATION WILL BE SAVED ON UNIT **** AT END OF TIME STEP   39, STRESS PERIOD    1

end timestep


start timestep kper="1" kstp="40" mode="normal"


 CONCENTRATION WILL BE SAVED ON UNIT **** AT END OF TIME STEP   40, STRESS PERIOD    1

end timestep


start timestep kper="1" kstp="41" mode="normal"


 CONCENTRATION WILL BE SAVED ON UNIT **** AT END OF TIME STEP   41, STRESS PERIOD    1

end timestep


start timestep kper="1" kstp="42" mode="normal"


 CONCENTRATION WILL BE SAVED ON UNIT **** AT END OF TIME STEP   42, STRESS PERIOD    1

end timestep


start timestep kper="1" kstp="43" mode="normal"


 CONCENTRATION WILL BE SAVED ON UNIT **** AT END OF TIME STEP   43, STRESS PERIOD    1

end timestep


start timestep kper="1" kstp="44" mode="normal"


 CONCENTRATION WILL BE SAVED ON UNIT **** AT END OF TIME STEP   44, STRESS PERIOD    1

end timestep


start timestep kper="1" kstp="45" mode="normal"


 CONCENTRATION WILL BE SAVED ON UNIT **** AT END OF TIME STEP   45, STRESS PERIOD    1

end timestep


start timestep kper="1" kstp="46" mode="normal"


 CONCENTRATION WILL BE SAVED ON UNIT **** AT END OF TIME STEP   46, STRESS PERIOD    1

end timestep


start timestep kper="1" kstp="47" mode="normal"


 CONCENTRATION WILL BE SAVED ON UNIT **** AT END OF TIME STEP   47, STRESS PERIOD    1

end timestep


start timestep kper="1" kstp="48" mode="normal"


 CONCENTRATION WILL BE SAVED ON UNIT **** AT END OF TIME STEP   48, STRESS PERIOD    1

end timestep


start timestep kper="1" kstp="49" mode="normal"


 CONCENTRATION WILL BE SAVED ON UNIT **** AT END OF TIME STEP   49, STRESS PERIOD    1

end timestep


start timestep kper="1" kstp="50" mode="normal"


 CONCENTRATION WILL BE SAVED ON UNIT **** AT END OF TIME STEP   50, STRESS PERIOD    1

end timestep


start timestep kper="1" kstp="51" mode="normal"


 CONCENTRATION WILL BE SAVED ON UNIT **** AT END OF TIME STEP   51, STRESS PERIOD    1

end timestep


start timestep kper="1" kstp="52" mode="normal"


 CONCENTRATION WILL BE SAVED ON UNIT **** AT END OF TIME STEP   52, STRESS PERIOD    1

end timestep


start timestep kper="1" kstp="53" mode="normal"


 CONCENTRATION WILL BE SAVED ON UNIT **** AT END OF TIME STEP   53, STRESS PERIOD    1

end timestep


start timestep kper="1" kstp="54" mode="normal"


 CONCENTRATION WILL BE SAVED ON UNIT **** AT END OF TIME STEP   54, STRESS PERIOD    1

end timestep


start timestep kper="1" kstp="55" mode="normal"


 CONCENTRATION WILL BE SAVED ON UNIT **** AT END OF TIME STEP   55, STRESS PERIOD    1

end timestep


start timestep kper="1" kstp="56" mode="normal"


 CONCENTRATION WILL BE SAVED ON UNIT **** AT END OF TIME STEP   56, STRESS PERIOD    1

end timestep


start timestep kper="1" kstp="57" mode="normal"


 CONCENTRATION WILL BE SAVED ON UNIT **** AT END OF TIME STEP   57, STRESS PERIOD    1

end timestep


start timestep kper="1" kstp="58" mode="normal"


 CONCENTRATION WILL BE SAVED ON UNIT **** AT END OF TIME STEP   58, STRESS PERIOD    1

end timestep


start timestep kper="1" kstp="59" mode="normal"


 CONCENTRATION WILL BE SAVED ON UNIT **** AT END OF TIME STEP   59, STRESS PERIOD    1

end timestep


start timestep kper="1" kstp="60" mode="normal"


 CONCENTRATION WILL BE SAVED ON UNIT **** AT END OF TIME STEP   60, STRESS PERIOD    1

end timestep


start timestep kper="1" kstp="61" mode="normal"


 CONCENTRATION WILL BE SAVED ON UNIT **** AT END OF TIME STEP   61, STRESS PERIOD    1

end timestep


start timestep kper="1" kstp="62" mode="normal"


 CONCENTRATION WILL BE SAVED ON UNIT **** AT END OF TIME STEP   62, STRESS PERIOD    1

end timestep


start timestep kper="1" kstp="63" mode="normal"


 CONCENTRATION WILL BE SAVED ON UNIT **** AT END OF TIME STEP   63, STRESS PERIOD    1

end timestep


start timestep kper="1" kstp="64" mode="normal"


 CONCENTRATION WILL BE SAVED ON UNIT **** AT END OF TIME STEP   64, STRESS PERIOD    1

end timestep


start timestep kper="1" kstp="65" mode="normal"


 CONCENTRATION WILL BE SAVED ON UNIT **** AT END OF TIME STEP   65, STRESS PERIOD    1

end timestep


start timestep kper="1" kstp="66" mode="normal"


 CONCENTRATION WILL BE SAVED ON UNIT **** AT END OF TIME STEP   66, STRESS PERIOD    1

end timestep


start timestep kper="1" kstp="67" mode="normal"


 CONCENTRATION WILL BE SAVED ON UNIT **** AT END OF TIME STEP   67, STRESS PERIOD    1

end timestep


start timestep kper="1" kstp="68" mode="normal"


 CONCENTRATION WILL BE SAVED ON UNIT **** AT END OF TIME STEP   68, STRESS PERIOD    1

end timestep


start timestep kper="1" kstp="69" mode="normal"


 CONCENTRATION WILL BE SAVED ON UNIT **** AT END OF TIME STEP   69, STRESS PERIOD    1

end timestep


start timestep kper="1" kstp="70" mode="normal"


 CONCENTRATION WILL BE SAVED ON UNIT **** AT END OF TIME STEP   70, STRESS PERIOD    1

end timestep


start timestep kper="1" kstp="71" mode="normal"


 CONCENTRATION WILL BE SAVED ON UNIT **** AT END OF TIME STEP   71, STRESS PERIOD    1

end timestep


start timestep kper="1" kstp="72" mode="normal"


 CONCENTRATION WILL BE SAVED ON UNIT **** AT END OF TIME STEP   72, STRESS PERIOD    1

end timestep


start timestep kper="1" kstp="73" mode="normal"


 CONCENTRATION WILL BE SAVED ON UNIT **** AT END OF TIME STEP   73, STRESS PERIOD    1

end timestep


start timestep kper="1" kstp="74" mode="normal"


 CONCENTRATION WILL BE SAVED ON UNIT **** AT END OF TIME STEP   74, STRESS PERIOD    1

end timestep


start timestep kper="1" kstp="75" mode="normal"


 CONCENTRATION WILL BE SAVED ON UNIT **** AT END OF TIME STEP   75, STRESS PERIOD    1

end timestep


start timestep kper="1" kstp="76" mode="normal"


 CONCENTRATION WILL BE SAVED ON UNIT **** AT END OF TIME STEP   76, STRESS PERIOD    1

end timestep


start timestep kper="1" kstp="77" mode="normal"


 CONCENTRATION WILL BE SAVED ON UNIT **** AT END OF TIME STEP   77, STRESS PERIOD    1

end timestep


start timestep kper="1" kstp="78" mode="normal"


 CONCENTRATION WILL BE SAVED ON UNIT **** AT END OF TIME STEP   78, STRESS PERIOD    1

end timestep


start timestep kper="1" kstp="79" mode="normal"


 CONCENTRATION WILL BE SAVED ON UNIT **** AT END OF TIME STEP   79, STRESS PERIOD    1

end timestep


start timestep kper="1" kstp="80" mode="normal"


 CONCENTRATION WILL BE SAVED ON UNIT **** AT END OF TIME STEP   80, STRESS PERIOD    1

end timestep


start timestep kper="1" kstp="81" mode="normal"


 CONCENTRATION WILL BE SAVED ON UNIT **** AT END OF TIME STEP   81, STRESS PERIOD    1

end timestep


start timestep kper="1" kstp="82" mode="normal"


 CONCENTRATION WILL BE SAVED ON UNIT **** AT END OF TIME STEP   82, STRESS PERIOD    1

end timestep


start timestep kper="1" kstp="83" mode="normal"


 CONCENTRATION WILL BE SAVED ON UNIT **** AT END OF TIME STEP   83, STRESS PERIOD    1

end timestep


start timestep kper="1" kstp="84" mode="normal"


 CONCENTRATION WILL BE SAVED ON UNIT **** AT END OF TIME STEP   84, STRESS PERIOD    1

end timestep


start timestep kper="1" kstp="85" mode="normal"


 CONCENTRATION WILL BE SAVED ON UNIT **** AT END OF TIME STEP   85, STRESS PERIOD    1

end timestep


start timestep kper="1" kstp="86" mode="normal"


 CONCENTRATION WILL BE SAVED ON UNIT **** AT END OF TIME STEP   86, STRESS PERIOD    1

end timestep


start timestep kper="1" kstp="87" mode="normal"


 CONCENTRATION WILL BE SAVED ON UNIT **** AT END OF TIME STEP   87, STRESS PERIOD    1

end timestep


start timestep kper="1" kstp="88" mode="normal"


 CONCENTRATION WILL BE SAVED ON UNIT **** AT END OF TIME STEP   88, STRESS PERIOD    1

end timestep


start timestep kper="1" kstp="89" mode="normal"


 CONCENTRATION WILL BE SAVED ON UNIT **** AT END OF TIME STEP   89, STRESS PERIOD    1

end timestep


start timestep kper="1" kstp="90" mode="normal"


 CONCENTRATION WILL BE SAVED ON UNIT **** AT END OF TIME STEP   90, STRESS PERIOD    1

end timestep


start timestep kper="1" kstp="91" mode="normal"


 CONCENTRATION WILL BE SAVED ON UNIT **** AT END OF TIME STEP   91, STRESS PERIOD    1

end timestep


start timestep kper="1" kstp="92" mode="normal"


 CONCENTRATION WILL BE SAVED ON UNIT **** AT END OF TIME STEP   92, STRESS PERIOD    1

end timestep


start timestep kper="1" kstp="93" mode="normal"


 CONCENTRATION WILL BE SAVED ON UNIT **** AT END OF TIME STEP   93, STRESS PERIOD    1

end timestep


start timestep kper="1" kstp="94" mode="normal"


 CONCENTRATION WILL BE SAVED ON UNIT **** AT END OF TIME STEP   94, STRESS PERIOD    1

end timestep


start timestep kper="1" kstp="95" mode="normal"


 CONCENTRATION WILL BE SAVED ON UNIT **** AT END OF TIME STEP   95, STRESS PERIOD    1

end timestep


start timestep kper="1" kstp="96" mode="normal"


 CONCENTRATION WILL BE SAVED ON UNIT **** AT END OF TIME STEP   96, STRESS PERIOD    1

end timestep


start timestep kper="1" kstp="97" mode="normal"


 CONCENTRATION WILL BE SAVED ON UNIT **** AT END OF TIME STEP   97, STRESS PERIOD    1

end timestep


start timestep kper="1" kstp="98" mode="normal"


 CONCENTRATION WILL BE SAVED ON UNIT **** AT END OF TIME STEP   98, STRESS PERIOD    1

end timestep


start timestep kper="1" kstp="99" mode="normal"


 CONCENTRATION WILL BE SAVED ON UNIT **** AT END OF TIME STEP   99, STRESS PERIOD    1

end timestep


start timestep kper="1" kstp="100" mode="normal"

1
  CONCENTRATION IN LAYER   1 AT END OF TIME STEP 100 IN STRESS PERIOD    1
  ---------------------------------------------------------------------------

                1               2               3               4               5               6               7               8               9              10
               11              12              13              14              15              16              17              18              19              20
               21              22              23              24              25
 ................................................................................................................................................................
   1  110691.7823     110690.2875     110691.2774     110693.8875     110694.3315     110694.1979     110694.5611     110694.8361     110695.2397     110695.2708    
      110695.0996     110694.7548     110694.3905     110694.0704     110693.7883     110693.5901     110693.4061     110693.2116     110692.9996     110692.7685    
      110692.5218     110692.2675     110692.0184     110691.7904     110691.6016    
1
  CONCENTRATION IN LAYER   2 AT END OF TIME STEP 100 IN STRESS PERIOD    1
  ---------------------------------------------------------------------------

                1               2               3               4               5               6               7               8               9              10
               11              12              13              14              15              16              17              18              19              20
               21              22              23              24              25
 ................................................................................................................................................................
   1  110691.9660     110690.8490     110691.7022     110693.9460     110694.2625     110694.5606     110694.7219     110694.9096     110695.2343     110695.2555    
      110695.0821     110694.7452     110694.3879     110694.0717     110693.7899     110693.5918     110693.4078     110693.2133     110693.0011     110692.7698    
      110692.5227     110692.2682     110692.0189     110691.7908     110691.6019    
1
  CONCENTRATION IN LAYER   3 AT END OF TIME STEP 100 IN STRESS PERIOD    1
  ---------------------------------------------------------------------------

                1               2               3               4               5               6               7               8               9              10
               11              12              13              14              15              16              17              18              19              20
               21              22              23              24              25
 ................................................................................................................................................................
   1  110692.5481     110691.9103     110692.4857     110694.0341     110694.1850     110694.5533     110694.9188     110695.0227     110695.2228     110695.2274    
      110695.0503     110694.7280     110694.3834     110694.0738     110693.7941     110693.5948     110693.4108     110693.2165     110693.0041     110692.7723    
      110692.5246     110692.2696     110692.0199     110691.7915     110691.6024    
1
  CONCENTRATION IN LAYER   4 AT END OF TIME STEP 100 IN STRESS PERIOD    1
  ---------------------------------------------------------------------------

                1               2               3               4               5               6               7               8               9              10
               11              12              13              14              15              16              17              18              19              20
               21              22              23              24              25
 ................................................................................................................................................................
   1  110695.1670     110693.2778     110693.3513     110694.0976     110694.2685     110694.5969     110695.0434     110695.1139     110695.2094     110695.1926    
      110695.0098     110694.7064     110694.3776     110694.0764     110693.8014     110693.5988     110693.4147     110693.2208     110693.0082     110692.7757    
      110692.5273     110692.2716     110692.0213     110691.7925     110691.6032    
1
  CONCENTRATION IN LAYER   5 AT END OF TIME STEP 100 IN STRESS PERIOD    1
  ---------------------------------------------------------------------------

                1               2               3               4               5               6               7               8               9              10
               11              12              13              14              15              16              17              18              19              20
               21              22              23              24              25
 ................................................................................................................................................................
   1  110695.1670     110694.0789     110694.1117     110694.2565     110694.3556     110694.6548     110695.0664     110695.1370     110695.2008     110695.1532    
      110694.9668     110694.6836     110694.3711     110694.0801     110693.8112     110693.6033     110693.4189     110693.2258     110693.0131     110692.7798    
      110692.5305     110692.2739     110692.0230     110691.7938     110691.6041    
1
  CONCENTRATION IN LAYER   6 AT END OF TIME STEP 100 IN STRESS PERIOD    1
  ---------------------------------------------------------------------------

                1               2               3               4               5               6               7               8               9              10
               11              12              13              14              15              16              17              18              19              20
               21              22              23              24              25
 ................................................................................................................................................................
   1  110695.1670     110694.5098     110694.6312     110694.4286     110694.4934     110694.7195     110695.0508     110695.1329     110695.1631     110695.1083    
      110694.9237     110694.6602     110694.3642     110694.0850     110693.8236     110693.6079     110693.4231     110693.2310     110693.0183     110692.7842    
      110692.5338     110692.2763     110692.0248     110691.7950     110691.6051    
1
  CONCENTRATION IN LAYER   7 AT END OF TIME STEP 100 IN STRESS PERIOD    1
  ---------------------------------------------------------------------------

                1               2               3               4               5               6               7               8               9              10
               11              12              13              14              15              16              17              18              19              20
               21              22              23              24              25
 ................................................................................................................................................................
   1  110695.1670     110694.7740     110694.8774     110694.6174     110694.6404     110694.7836     110695.0276     110695.1083     110695.1172     110695.0595    
      110694.8857     110694.6312     110694.3571     110694.0926     110693.8382     110693.6116     110693.4267     110693.2360     110693.0233     110692.7885    
      110692.5371     110692.2787     110692.0265     110691.7963     110691.6060    
1
  CONCENTRATION IN LAYER   8 AT END OF TIME STEP 100 IN STRESS PERIOD    1
  ---------------------------------------------------------------------------

                1               2               3               4               5               6               7               8               9              10
               11              12              13              14              15              16              17              18              19              20
               21              22              23              24              25
 ................................................................................................................................................................
   1  110695.1670     110694.9360     110694.9894     110694.7665     110694.7595     110694.8394     110695.0086     110695.0770     110695.0745     110695.0152    
      110694.8520     110694.6072     110694.3438     110694.1040     110693.8535     110693.6136     110693.4294     110693.2402     110693.0277     110692.7922    
      110692.5399     110692.2807     110692.0279     110691.7973     110691.6068    
1
  CONCENTRATION IN LAYER   9 AT END OF TIME STEP 100 IN STRESS PERIOD    1
  ---------------------------------------------------------------------------

                1               2               3               4               5               6               7               8               9              10
               11              12              13              14              15              16              17              18              19              20
               21              22              23              24              25
 ................................................................................................................................................................
   1  110695.1670     110695.0264     110695.0419     110694.8666     110694.8348     110694.8804     110694.9970     110695.0504     110695.0428     110694.9819    
      110694.8265     110694.5902     110694.3289     110694.1183     110693.8654     110693.6135     110693.4311     110693.2434     110693.0310     110692.7949    
      110692.5419     110692.2822     110692.0290     110691.7981     110691.6074    
1
  CONCENTRATION IN LAYER  10 AT END OF TIME STEP 100 IN STRESS PERIOD    1
  ---------------------------------------------------------------------------

                1               2               3               4               5               6               7               8               9              10
               11              12              13              14              15              16              17              18              19              20
               21              22              23              24              25
 ................................................................................................................................................................
   1  110695.1670     110695.0663     110695.0638     110694.9163     110694.8702     110694.9016     110694.9918     110695.0357     110695.0259     110694.9643    
      110694.8129     110694.5813     110694.3211     110694.1255     110693.8721     110693.6134     110693.4318     110693.2451     110693.0328     110692.7964    
      110692.5431     110692.2830     110692.0296     110691.7985     110691.6077    

 CONCENTRATION WILL BE SAVED ON UNIT **** AT END OF TIME STEP  100, STRESS PERIOD    1


  MASS BUDGET FOR ENTIRE MODEL AT END OF TIME STEP  100, STRESS PERIOD   1
  ---------------------------------------------------------------------------------------------------

     CUMULATIVE MASS      M       RATES FOR THIS TIME STEP      M/T          PACKAGE NAME    
     ------------------                 ------------------------                     ----------------

           IN:                                      IN:
           ---                                      ---
     STORAGE-AQUEOUS =        3833.1310       STORAGE-AQUEOUS =           0.5291     MST                              
                 CHD =           0.0000                   CHD =           0.0000     SSM_CHD                          
                 CHD =    13836594.4252                   CHD =        6918.2973     SSM_CHDTAIL                      
                 CNC =    32286703.8671                   CNC =       16143.3217     CNC                              

            TOTAL IN =    46127131.4233              TOTAL IN =       23062.1481

          OUT:                                     OUT:
          ----                                     ----
     STORAGE-AQUEOUS =        4780.6823       STORAGE-AQUEOUS =           1.3966     MST                              
                 CHD =    46122336.2240                   CHD =       23060.7515     SSM_CHD                          
                 CHD =           0.0000                   CHD =           0.0000     SSM_CHDTAIL                      
                 CNC =          14.5170                   CNC =           0.0000     CNC                              

           TOTAL OUT =    46127131.4233             TOTAL OUT =       23062.1481

            IN - OUT =       6.7055E-07              IN - OUT =       3.0923E-10

 PERCENT DISCREPANCY =           0.00     PERCENT DISCREPANCY =           0.00




         TIME SUMMARY AT END OF TIME STEP  100 IN STRESS PERIOD    1
                    SECONDS     MINUTES      HOURS       DAYS        YEARS
                    -----------------------------------------------------------
   TIME STEP LENGTH 1.72800E+06  28800.      480.00      20.000     5.47570E-02
 STRESS PERIOD TIME 1.72800E+08 2.88000E+06  48000.      2000.0      5.4757    
         TOTAL TIME 1.72800E+08 2.88000E+06  48000.      2000.0      5.4757    


end timestep

