                                   MODFLOW 6
                U.S. GEOLOGICAL SURVEY MODULAR HYDROLOGIC MODEL
                       GROUNDWATER TRANSPORT MODEL (GWT)
                VERSION 6.5.0.dev0+prt (preliminary) 10/07/2023
                               ***DEVELOP MODE***

   MODFLOW 6 compiled Oct 07 2023 02:19:02 with Intel(R) Fortran Intel(R) 64
   Compiler Classic for applications running on Intel(R) 64, Version 2021.7.0
                             Build 20220726_000000

This software is preliminary or provisional and is subject to 
revision. It is being provided to meet the need for timely best 
science. The software has not received final approval by the U.S. 
Geological Survey (USGS). No warranty, expressed or implied, is made 
by the USGS or the U.S. Government as to the functionality of the 
software and related material nor shall the fact of release 
constitute any such warranty. The software is provided on the 
condition that neither the USGS nor the U.S. Government shall be held 
liable for any damages resulting from the authorized or unauthorized 
use of the software.


As a work of the United States Government, this USGS product is 
in the public domain within the United States. You can copy, 
modify, distribute, and perform the work, even for commercial 
purposes, all without asking permission. Additionally, USGS 
waives copyright and related rights in the work worldwide 
through CC0 1.0 Universal Public Domain Dedication 
(https://creativecommons.org/publicdomain/zero/1.0/).

The following GNU Lesser General Public License (LGPL) libraries
are used in this USGS product:

    SPARSKIT version 2.0
      ilut, luson, and qsplit 
      (https://www-users.cse.umn.edu/~saad/software/SPARSKIT/)

    RCM - Reverse Cuthill McKee Ordering
      (https://people.math.sc.edu/Burkardt/f_src/rcm/rcm.html)

    BLAS - Basic Linear Algebra Subprograms Level 1
      (https://people.math.sc.edu/Burkardt/f_src/blas1_d/blas1_d.html)

    SPARSEKIT - Sparse Matrix Utility Package
      amux, dperm, dvperm, rperm, and cperm
      (https://people.sc.fsu.edu/~jburkardt/f77_src/sparsekit/sparsekit.html)

The following BSD-3 License libraries are used in this USGS product:

    Modern Fortran DAG Library
      Copyright (c) 2018, Jacob Williams
      All rights reserved.
      (https://github.com/jacobwilliams/daglib)

MODFLOW 6 compiler options: /Isrc\libmf6core.a.p /Isrc /I..\src
/Isrc\libmf6_external.a.p /MTd /nologo /warn:general /warn:truncated_source
/stand:f08 /Zi /traceback /O2 /fpe:0 /heap-arrays:0 /traceback /fpp
/Qdiag-disable:7416 /Qdiag-disable:7025 /Qdiag-disable:5268
/Fdsrc\libmf6core.a.p\Utilities_compilerversion.F90.pdb
/module:src\libmf6core.a.p
/Fosrc/libmf6core.a.p/Utilities_compilerversion.F90.obj /c

System command used to initiate simulation:
c:\Users\portega\anaconda3\envs\mf6rtm\python.exe -m ipykernel_launcher --f=c:\Users\portega\AppData\Roaming\jupyter\runtime\kernel-v2-17404w7nug58txkWt.json

MODFLOW was compiled using uniform precision.

Real Variables
  KIND: 8
  TINY (smallest non-zero value):    2.225074-308
  HUGE (largest value):    1.797693+308
  PRECISION: 15
  SIZE IN BITS: 64

Integer Variables
  KIND: 4
  HUGE (largest value): 2147483647
  SIZE IN BITS: 32

Long Integer Variables
  KIND: 8
  HUGE (largest value): 9223372036854775807
  SIZE IN BITS: 64

Logical Variables
  KIND: 4
  SIZE IN BITS: 32
 
 NAMEFILE OPTIONS:
 END NAMEFILE OPTIONS:

 DIS -- STRUCTURED GRID DISCRETIZATION PACKAGE, VERSION 2 : 3/27/2014 - INPUT READ FROM MEMPATH: __INPUT__/K/DIS                                   


 DSP-- DISPERSION PACKAGE, VERSION 1, 1/24/2018 INPUT READ FROM MEMPATH: __INPUT__/K/DSP                                   


 Setting Discretization Options
    Model length unit [0=UND, 1=FEET, 2=METERS, 3=CENTIMETERS] set as 2
 End Setting Discretization Options

 Setting Discretization Dimensions
    NLAY = 10
    NROW = 1
    NCOL = 25
 End Setting Discretization Dimensions

 Setting Discretization Griddata
    DELR set from input file
    DELC set from input file
    TOP set from input file
    BOTM set from input file
    IDOMAIN set from input file
 End Setting Discretization Griddata


 FMI -- FLOW MODEL INTERFACE,' VERSION 2, 8/17/2023
  FLOWS PROVIDED BY A GWF MODEL IN THIS SIMULATION

 ADV-- ADVECTION PACKAGE, VERSION 1, 8/25/2017 INPUT READ FROM UNIT 1558


 # File generated by Flopy version 3.5.0.dev0 on 07/12/2024 at 15:45:50.
 PROCESSING ADVECTION OPTIONS
    ADVECTION WEIGHTING SCHEME HAS BEEN SET TO: TVD
 END OF ADVECTION OPTIONS
 Setting DSP Options
    XT3D formulation [0=INACTIVE, 1=ACTIVE, 3=ACTIVE RHS] set to: 0
 End Setting DSP Options

 Setting DSP Griddata
    ALH set from input file
    ATH1 set from input file
    ATV set from input file
 End Setting DSP Griddata


 CNC   -- CNC PACKAGE, VERSION 8, 2/22/2014 INPUT READ FROM UNIT 1592
 # File generated by Flopy version 3.5.0.dev0 on 07/12/2024 at 15:45:50.

 PROCESSING CNC OPTIONS
    CNC FLOWS WILL BE PRINTED TO LISTING FILE.
    FLOWS WILL BE SAVED TO BUDGET FILE SPECIFIED IN OUTPUT CONTROL
 END OF CNC OPTIONS

 PROCESSING CNC DIMENSIONS
    MAXBOUND =       7
 END OF CNC DIMENSIONS

 IC -- INITIAL CONDITIONS PACKAGE, VERSION 8, 3/28/2015 INPUT READ FROM UNIT 1556
 # File generated by Flopy version 3.5.0.dev0 on 07/12/2024 at 15:45:50.
 PROCESSING GRIDDATA

 OPENED K.ic_strt_layer1.txt
 FILE TYPE:OPEN/CLOSE   UNIT 2050   STATUS:OLD                 
 FORMAT:FORMATTED              ACCESS:SEQUENTIAL          
 ACTION:READ                


 OPENED K.ic_strt_layer2.txt
 FILE TYPE:OPEN/CLOSE   UNIT 2051   STATUS:OLD                 
 FORMAT:FORMATTED              ACCESS:SEQUENTIAL          
 ACTION:READ                


 OPENED K.ic_strt_layer3.txt
 FILE TYPE:OPEN/CLOSE   UNIT 2052   STATUS:OLD                 
 FORMAT:FORMATTED              ACCESS:SEQUENTIAL          
 ACTION:READ                


 OPENED K.ic_strt_layer4.txt
 FILE TYPE:OPEN/CLOSE   UNIT 2053   STATUS:OLD                 
 FORMAT:FORMATTED              ACCESS:SEQUENTIAL          
 ACTION:READ                


 OPENED K.ic_strt_layer5.txt
 FILE TYPE:OPEN/CLOSE   UNIT 2054   STATUS:OLD                 
 FORMAT:FORMATTED              ACCESS:SEQUENTIAL          
 ACTION:READ                


 OPENED K.ic_strt_layer6.txt
 FILE TYPE:OPEN/CLOSE   UNIT 2055   STATUS:OLD                 
 FORMAT:FORMATTED              ACCESS:SEQUENTIAL          
 ACTION:READ                


 OPENED K.ic_strt_layer7.txt
 FILE TYPE:OPEN/CLOSE   UNIT 2056   STATUS:OLD                 
 FORMAT:FORMATTED              ACCESS:SEQUENTIAL          
 ACTION:READ                


 OPENED K.ic_strt_layer8.txt
 FILE TYPE:OPEN/CLOSE   UNIT 2057   STATUS:OLD                 
 FORMAT:FORMATTED              ACCESS:SEQUENTIAL          
 ACTION:READ                


 OPENED K.ic_strt_layer9.txt
 FILE TYPE:OPEN/CLOSE   UNIT 2058   STATUS:OLD                 
 FORMAT:FORMATTED              ACCESS:SEQUENTIAL          
 ACTION:READ                


 OPENED K.ic_strt_layer10.txt
 FILE TYPE:OPEN/CLOSE   UNIT 2059   STATUS:OLD                 
 FORMAT:FORMATTED              ACCESS:SEQUENTIAL          
 ACTION:READ                

 END PROCESSING GRIDDATA

 MST -- MOBILE STORAGE AND TRANSFER PACKAGE, VERSION 1, 7/29/2020 INPUT READ FROM UNIT 1557


 # File generated by Flopy version 3.5.0.dev0 on 07/12/2024 at 15:45:50.
 PROCESSING MOBILE STORAGE AND TRANSFER OPTIONS
 END OF MOBILE STORAGE AND TRANSFER OPTIONS
 PROCESSING GRIDDATA

 OPENED K.mst_porosity.txt
 FILE TYPE:OPEN/CLOSE   UNIT 2060   STATUS:OLD                 
 FORMAT:FORMATTED              ACCESS:SEQUENTIAL          
 ACTION:READ                

 END PROCESSING GRIDDATA

 SSM -- SOURCE-SINK MIXING PACKAGE, VERSION 1, 8/25/2017 INPUT READ FROM UNIT 1590


 # File generated by Flopy version 3.5.0.dev0 on 07/12/2024 at 15:45:50.
 PROCESSING SSM OPTIONS
    SSM FLOW INFORMATION WILL BE PRINTED TO LISTING FILE WHENEVER ICBCFL IS NOT ZERO.
    CELL-BY-CELL FLOW INFORMATION WILL BE SAVED TO BINARY FILE WHENEVER ICBCFL IS NOT ZERO.
 END OF SSM OPTIONS

 OPENED K.ssm_sources.txt
 FILE TYPE:OPEN/CLOSE   UNIT 2061   STATUS:OLD                 
 FORMAT:FORMATTED              ACCESS:SEQUENTIAL          
 ACTION:READ                

 PROCESSING SOURCES
 AUX SOURCE DETECTED.
    USING AUX COLUMN 9 IN PACKAGE CHD
 END PROCESSING SOURCES
 OPTIONAL FILEINPUT BLOCK NOT FOUND.  CONTINUING.
      THE LAST TIME STEP WILL BE PRINTED
      THE LAST TIME STEP WILL BE PRINTED
 # File generated by Flopy version 3.5.0.dev0 on 07/12/2024 at 15:45:50.

 PROCESSING OC OPTIONS

    BUDGET INFORMATION WILL BE WRITTEN TO:
      UNIT NUMBER: 2062
      FILE NAME: K.cbb

 OPENED K.cbb
 FILE TYPE:DATA(BINARY)   UNIT 2062   STATUS:REPLACE             
 FORMAT:UNFORMATTED            ACCESS:STREAM              
 ACTION:READWRITE           

    CONCENTRATION INFORMATION WILL BE WRITTEN TO:
      UNIT NUMBER: 2063
      FILE NAME: K.ucn

 OPENED K.ucn
 FILE TYPE:DATA(BINARY)   UNIT 2063   STATUS:REPLACE             
 FORMAT:UNFORMATTED            ACCESS:STREAM              
 ACTION:READWRITE           

 END OF OC OPTIONS

start timestep kper="1" kstp="1" mode="normal"


 BEGIN READING OUTPUT CONTROL FOR STRESS PERIOD 1
      ALL TIME STEPS WILL BE SAVED
      ALL TIME STEPS WILL BE SAVED
      ALL TIME STEPS WILL BE PRINTED
      ALL TIME STEPS WILL BE PRINTED

 END READING OUTPUT CONTROL FOR STRESS PERIOD 1

 OPENED K.cnc_stress_period_data_1.txt
 FILE TYPE:OPEN/CLOSE   UNIT 2142   STATUS:OLD                 
 FORMAT:FORMATTED              ACCESS:SEQUENTIAL          
 ACTION:READ                

 UBDSV06 SAVING  SOURCE-SINK MIX IN MODEL K                PACKAGE K               CONNECTED TO MODEL K                PACKAGE SSM              ON UNIT   2062 AT TIME STEP      1, STRESS PERIOD      1
 UBDSV06 SAVING              CNC IN MODEL K                PACKAGE K               CONNECTED TO MODEL K                PACKAGE CNC              ON UNIT   2062 AT TIME STEP      1, STRESS PERIOD      1

 SSM PACKAGE (SSM) FLOW RATES   PERIOD      1   STEP        1
 ------------------------------------------------------------------------------------------------
   NUMBER   CELLID                   BOUND Q        SSM CONC          RATE         PACKAGE NAME  
 ------------------------------------------------------------------------------------------------
     1      (1,1,1)               2.08333361E-02  0.79065511      1.64719837E-02       CHD       
     2      (2,1,1)               2.08333361E-02  0.79065511      1.64719837E-02       CHD       
     3      (3,1,1)               2.08333361E-02  0.79065511      1.64719837E-02       CHD       
     4      (4,1,1)               0.0000000       0.0000000       0.0000000            CHD       
     5      (5,1,1)               0.0000000       0.0000000       0.0000000            CHD       
     6      (6,1,1)               0.0000000       0.0000000       0.0000000            CHD       
     7      (7,1,1)               0.0000000       0.0000000       0.0000000            CHD       
     8      (8,1,1)               0.0000000       0.0000000       0.0000000            CHD       
     9      (9,1,1)               0.0000000       0.0000000       0.0000000            CHD       
     10     (10,1,1)              0.0000000       0.0000000       0.0000000            CHD       
     11     (1,1,25)             -2.08333402E-02  6.63033600E-02 -1.38132046E-03       CHD       
     12     (2,1,25)             -2.08333402E-02  6.63033600E-02 -1.38132046E-03       CHD       
     13     (3,1,25)             -2.08333402E-02  6.63033600E-02 -1.38132046E-03       CHD       
     14     (4,1,25)             -2.08333403E-02  6.63033600E-02 -1.38132046E-03       CHD       
     15     (5,1,25)             -2.08333403E-02  6.63033600E-02 -1.38132046E-03       CHD       
     16     (6,1,25)             -2.08333403E-02  6.63033600E-02 -1.38132046E-03       CHD       
     17     (7,1,25)             -2.08333403E-02  6.63033600E-02 -1.38132046E-03       CHD       
     18     (8,1,25)             -2.08333403E-02  6.63033600E-02 -1.38132046E-03       CHD       
     19     (9,1,25)             -2.08333403E-02  6.63033600E-02 -1.38132046E-03       CHD       
     20     (10,1,25)            -2.08333403E-02  6.63033600E-02 -1.38132046E-03       CHD       
 ------------------------------------------------------------------------------------------------




 CNC PACKAGE (CNC) FLOW RATES   PERIOD      1   STEP        1
 -----------------------------------------------
   NUMBER   CELLID                    RATE      
 -----------------------------------------------
     1      (4,1,1)              -9.29613233E-03
     2      (5,1,1)               1.36347583E-03
     3      (6,1,1)               1.37408790E-03
     4      (7,1,1)               1.37837734E-03
     5      (8,1,1)               1.38011004E-03
     6      (9,1,1)               1.38079801E-03
     7      (10,1,1)              1.38103823E-03
 -----------------------------------------------



1
  CONCENTRATION IN LAYER   1 AT END OF TIME STEP   1 IN STRESS PERIOD    1
  ---------------------------------------------------------------------------

                1               2               3               4               5               6               7               8               9              10
               11              12              13              14              15              16              17              18              19              20
               21              22              23              24              25
 ................................................................................................................................................................
   1  .1453449803     *************** *************** *************** *************** *************** *************** *************** *************** ***************
      *************** *************** *************** *************** *************** *************** *************** *************** *************** ***************
      *************** *************** *************** *************** ***************
1
  CONCENTRATION IN LAYER   2 AT END OF TIME STEP   1 IN STRESS PERIOD    1
  ---------------------------------------------------------------------------

                1               2               3               4               5               6               7               8               9              10
               11              12              13              14              15              16              17              18              19              20
               21              22              23              24              25
 ................................................................................................................................................................
   1  .1380148013     *************** *************** *************** *************** *************** *************** *************** *************** ***************
      *************** *************** *************** *************** *************** *************** *************** *************** *************** ***************
      *************** *************** *************** *************** ***************
1
  CONCENTRATION IN LAYER   3 AT END OF TIME STEP   1 IN STRESS PERIOD    1
  ---------------------------------------------------------------------------

                1               2               3               4               5               6               7               8               9              10
               11              12              13              14              15              16              17              18              19              20
               21              22              23              24              25
 ................................................................................................................................................................
   1  .1173431906     *************** *************** *************** *************** *************** *************** *************** *************** ***************
      *************** *************** *************** *************** *************** *************** *************** *************** *************** ***************
      *************** *************** *************** *************** ***************
1
  CONCENTRATION IN LAYER   4 AT END OF TIME STEP   1 IN STRESS PERIOD    1
  ---------------------------------------------------------------------------

                1               2               3               4               5               6               7               8               9              10
               11              12              13              14              15              16              17              18              19              20
               21              22              23              24              25
 ................................................................................................................................................................
   1  *************** *************** *************** *************** *************** *************** *************** *************** *************** ***************
      *************** *************** *************** *************** *************** *************** *************** *************** *************** ***************
      *************** *************** *************** *************** ***************
1
  CONCENTRATION IN LAYER   5 AT END OF TIME STEP   1 IN STRESS PERIOD    1
  ---------------------------------------------------------------------------

                1               2               3               4               5               6               7               8               9              10
               11              12              13              14              15              16              17              18              19              20
               21              22              23              24              25
 ................................................................................................................................................................
   1  *************** *************** *************** *************** *************** *************** *************** *************** *************** ***************
      *************** *************** *************** *************** *************** *************** *************** *************** *************** ***************
      *************** *************** *************** *************** ***************
1
  CONCENTRATION IN LAYER   6 AT END OF TIME STEP   1 IN STRESS PERIOD    1
  ---------------------------------------------------------------------------

                1               2               3               4               5               6               7               8               9              10
               11              12              13              14              15              16              17              18              19              20
               21              22              23              24              25
 ................................................................................................................................................................
   1  *************** *************** *************** *************** *************** *************** *************** *************** *************** ***************
      *************** *************** *************** *************** *************** *************** *************** *************** *************** ***************
      *************** *************** *************** *************** ***************
1
  CONCENTRATION IN LAYER   7 AT END OF TIME STEP   1 IN STRESS PERIOD    1
  ---------------------------------------------------------------------------

                1               2               3               4               5               6               7               8               9              10
               11              12              13              14              15              16              17              18              19              20
               21              22              23              24              25
 ................................................................................................................................................................
   1  *************** *************** *************** *************** *************** *************** *************** *************** *************** ***************
      *************** *************** *************** *************** *************** *************** *************** *************** *************** ***************
      *************** *************** *************** *************** ***************
1
  CONCENTRATION IN LAYER   8 AT END OF TIME STEP   1 IN STRESS PERIOD    1
  ---------------------------------------------------------------------------

                1               2               3               4               5               6               7               8               9              10
               11              12              13              14              15              16              17              18              19              20
               21              22              23              24              25
 ................................................................................................................................................................
   1  *************** *************** *************** *************** *************** *************** *************** *************** *************** ***************
      *************** *************** *************** *************** *************** *************** *************** *************** *************** ***************
      *************** *************** *************** *************** ***************
1
  CONCENTRATION IN LAYER   9 AT END OF TIME STEP   1 IN STRESS PERIOD    1
  ---------------------------------------------------------------------------

                1               2               3               4               5               6               7               8               9              10
               11              12              13              14              15              16              17              18              19              20
               21              22              23              24              25
 ................................................................................................................................................................
   1  *************** *************** *************** *************** *************** *************** *************** *************** *************** ***************
      *************** *************** *************** *************** *************** *************** *************** *************** *************** ***************
      *************** *************** *************** *************** ***************
1
  CONCENTRATION IN LAYER  10 AT END OF TIME STEP   1 IN STRESS PERIOD    1
  ---------------------------------------------------------------------------

                1               2               3               4               5               6               7               8               9              10
               11              12              13              14              15              16              17              18              19              20
               21              22              23              24              25
 ................................................................................................................................................................
   1  *************** *************** *************** *************** *************** *************** *************** *************** *************** ***************
      *************** *************** *************** *************** *************** *************** *************** *************** *************** ***************
      *************** *************** *************** *************** ***************

 CONCENTRATION WILL BE SAVED ON UNIT 2063 AT END OF TIME STEP    1, STRESS PERIOD    1


  MASS BUDGET FOR ENTIRE MODEL AT END OF TIME STEP    1, STRESS PERIOD   1
  ---------------------------------------------------------------------------------------------------

     CUMULATIVE MASS      M       RATES FOR THIS TIME STEP      M/T          PACKAGE NAME    
     ------------------                 ------------------------                     ----------------

           IN:                                      IN:
           ---                                      ---
     STORAGE-AQUEOUS =       8.8189E-08       STORAGE-AQUEOUS =       8.8189E-09     MST                              
                 CHD =           0.4942                   CHD =       4.9416E-02     SSM_CHD                          
                 CNC =       9.5951E-02                   CNC =       9.5951E-03     CNC                              

            TOTAL IN =           0.5901              TOTAL IN =       5.9011E-02

          OUT:                                     OUT:
          ----                                     ----
     STORAGE-AQUEOUS =           0.3456       STORAGE-AQUEOUS =       3.4565E-02     MST                              
                 CHD =           0.1381                   CHD =       1.3813E-02     SSM_CHD                          
                 CNC =           0.1063                   CNC =       1.0633E-02     CNC                              

           TOTAL OUT =           0.5901             TOTAL OUT =       5.9011E-02

            IN - OUT =       2.5476E-09              IN - OUT =       2.5476E-10

 PERCENT DISCREPANCY =           0.00     PERCENT DISCREPANCY =           0.00




         TIME SUMMARY AT END OF TIME STEP    1 IN STRESS PERIOD    1
                    SECONDS     MINUTES      HOURS       DAYS        YEARS
                    -----------------------------------------------------------
   TIME STEP LENGTH 8.64000E+05  14400.      240.00      10.000     2.73785E-02
 STRESS PERIOD TIME 8.64000E+05  14400.      240.00      10.000     2.73785E-02
         TOTAL TIME 8.64000E+05  14400.      240.00      10.000     2.73785E-02


end timestep


start timestep kper="1" kstp="2" mode="normal"

 UBDSV06 SAVING  SOURCE-SINK MIX IN MODEL K                PACKAGE K               CONNECTED TO MODEL K                PACKAGE SSM              ON UNIT   2062 AT TIME STEP      2, STRESS PERIOD      1
 UBDSV06 SAVING              CNC IN MODEL K                PACKAGE K               CONNECTED TO MODEL K                PACKAGE CNC              ON UNIT   2062 AT TIME STEP      2, STRESS PERIOD      1

 SSM PACKAGE (SSM) FLOW RATES   PERIOD      1   STEP        2
 ------------------------------------------------------------------------------------------------
   NUMBER   CELLID                   BOUND Q        SSM CONC          RATE         PACKAGE NAME  
 ------------------------------------------------------------------------------------------------
     1      (1,1,1)               2.08333319E-02  0.79065511      1.64719803E-02       CHD       
     2      (2,1,1)               2.08333319E-02  0.79065511      1.64719803E-02       CHD       
     3      (3,1,1)               2.08333319E-02  0.79065511      1.64719803E-02       CHD       
     4      (4,1,1)               0.0000000       0.0000000       0.0000000            CHD       
     5      (5,1,1)               0.0000000       0.0000000       0.0000000            CHD       
     6      (6,1,1)               0.0000000       0.0000000       0.0000000            CHD       
     7      (7,1,1)               0.0000000       0.0000000       0.0000000            CHD       
     8      (8,1,1)               0.0000000       0.0000000       0.0000000            CHD       
     9      (9,1,1)               0.0000000       0.0000000       0.0000000            CHD       
     10     (10,1,1)              0.0000000       0.0000000       0.0000000            CHD       
     11     (1,1,25)             -2.08333370E-02  6.63033600E-02 -1.38132024E-03       CHD       
     12     (2,1,25)             -2.08333370E-02  6.63033600E-02 -1.38132024E-03       CHD       
     13     (3,1,25)             -2.08333370E-02  6.63033600E-02 -1.38132024E-03       CHD       
     14     (4,1,25)             -2.08333370E-02  6.63033600E-02 -1.38132024E-03       CHD       
     15     (5,1,25)             -2.08333370E-02  6.63033600E-02 -1.38132024E-03       CHD       
     16     (6,1,25)             -2.08333370E-02  6.63033600E-02 -1.38132024E-03       CHD       
     17     (7,1,25)             -2.08333370E-02  6.63033600E-02 -1.38132024E-03       CHD       
     18     (8,1,25)             -2.08333370E-02  6.63033600E-02 -1.38132024E-03       CHD       
     19     (9,1,25)             -2.08333370E-02  6.63033600E-02 -1.38132024E-03       CHD       
     20     (10,1,25)            -2.08333370E-02  6.63033600E-02 -1.38132024E-03       CHD       
 ------------------------------------------------------------------------------------------------




 CNC PACKAGE (CNC) FLOW RATES   PERIOD      1   STEP        2
 -----------------------------------------------
   NUMBER   CELLID                    RATE      
 -----------------------------------------------
     1      (4,1,1)              -1.54041839E-02
     2      (5,1,1)               1.32738103E-03
     3      (6,1,1)               1.35704109E-03
     4      (7,1,1)               1.37044190E-03
     5      (8,1,1)               1.37641953E-03
     6      (9,1,1)               1.37900342E-03
     7      (10,1,1)              1.37996329E-03
 -----------------------------------------------



1
  CONCENTRATION IN LAYER   1 AT END OF TIME STEP   2 IN STRESS PERIOD    1
  ---------------------------------------------------------------------------

                1               2               3               4               5               6               7               8               9              10
               11              12              13              14              15              16              17              18              19              20
               21              22              23              24              25
 ................................................................................................................................................................
   1  .2006020623     *************** *************** *************** *************** *************** *************** *************** *************** ***************
      *************** *************** *************** *************** *************** *************** *************** *************** *************** ***************
      *************** *************** *************** *************** ***************
1
  CONCENTRATION IN LAYER   2 AT END OF TIME STEP   2 IN STRESS PERIOD    1
  ---------------------------------------------------------------------------

                1               2               3               4               5               6               7               8               9              10
               11              12              13              14              15              16              17              18              19              20
               21              22              23              24              25
 ................................................................................................................................................................
   1  .1850871304     *************** *************** *************** *************** *************** *************** *************** *************** ***************
      *************** *************** *************** *************** *************** *************** *************** *************** *************** ***************
      *************** *************** *************** *************** ***************
1
  CONCENTRATION IN LAYER   3 AT END OF TIME STEP   2 IN STRESS PERIOD    1
  ---------------------------------------------------------------------------

                1               2               3               4               5               6               7               8               9              10
               11              12              13              14              15              16              17              18              19              20
               21              22              23              24              25
 ................................................................................................................................................................
   1  .1463033649     *************** *************** *************** *************** *************** *************** *************** *************** ***************
      *************** *************** *************** *************** *************** *************** *************** *************** *************** ***************
      *************** *************** *************** *************** ***************
1
  CONCENTRATION IN LAYER   4 AT END OF TIME STEP   2 IN STRESS PERIOD    1
  ---------------------------------------------------------------------------

                1               2               3               4               5               6               7               8               9              10
               11              12              13              14              15              16              17              18              19              20
               21              22              23              24              25
 ................................................................................................................................................................
   1  *************** *************** *************** *************** *************** *************** *************** *************** *************** ***************
      *************** *************** *************** *************** *************** *************** *************** *************** *************** ***************
      *************** *************** *************** *************** ***************
1
  CONCENTRATION IN LAYER   5 AT END OF TIME STEP   2 IN STRESS PERIOD    1
  ---------------------------------------------------------------------------

                1               2               3               4               5               6               7               8               9              10
               11              12              13              14              15              16              17              18              19              20
               21              22              23              24              25
 ................................................................................................................................................................
   1  *************** *************** *************** *************** *************** *************** *************** *************** *************** ***************
      *************** *************** *************** *************** *************** *************** *************** *************** *************** ***************
      *************** *************** *************** *************** ***************
1
  CONCENTRATION IN LAYER   6 AT END OF TIME STEP   2 IN STRESS PERIOD    1
  ---------------------------------------------------------------------------

                1               2               3               4               5               6               7               8               9              10
               11              12              13              14              15              16              17              18              19              20
               21              22              23              24              25
 ................................................................................................................................................................
   1  *************** *************** *************** *************** *************** *************** *************** *************** *************** ***************
      *************** *************** *************** *************** *************** *************** *************** *************** *************** ***************
      *************** *************** *************** *************** ***************
1
  CONCENTRATION IN LAYER   7 AT END OF TIME STEP   2 IN STRESS PERIOD    1
  ---------------------------------------------------------------------------

                1               2               3               4               5               6               7               8               9              10
               11              12              13              14              15              16              17              18              19              20
               21              22              23              24              25
 ................................................................................................................................................................
   1  *************** *************** *************** *************** *************** *************** *************** *************** *************** ***************
      *************** *************** *************** *************** *************** *************** *************** *************** *************** ***************
      *************** *************** *************** *************** ***************
1
  CONCENTRATION IN LAYER   8 AT END OF TIME STEP   2 IN STRESS PERIOD    1
  ---------------------------------------------------------------------------

                1               2               3               4               5               6               7               8               9              10
               11              12              13              14              15              16              17              18              19              20
               21              22              23              24              25
 ................................................................................................................................................................
   1  *************** *************** *************** *************** *************** *************** *************** *************** *************** ***************
      *************** *************** *************** *************** *************** *************** *************** *************** *************** ***************
      *************** *************** *************** *************** ***************
1
  CONCENTRATION IN LAYER   9 AT END OF TIME STEP   2 IN STRESS PERIOD    1
  ---------------------------------------------------------------------------

                1               2               3               4               5               6               7               8               9              10
               11              12              13              14              15              16              17              18              19              20
               21              22              23              24              25
 ................................................................................................................................................................
   1  *************** *************** *************** *************** *************** *************** *************** *************** *************** ***************
      *************** *************** *************** *************** *************** *************** *************** *************** *************** ***************
      *************** *************** *************** *************** ***************
1
  CONCENTRATION IN LAYER  10 AT END OF TIME STEP   2 IN STRESS PERIOD    1
  ---------------------------------------------------------------------------

                1               2               3               4               5               6               7               8               9              10
               11              12              13              14              15              16              17              18              19              20
               21              22              23              24              25
 ................................................................................................................................................................
   1  *************** *************** *************** *************** *************** *************** *************** *************** *************** ***************
      *************** *************** *************** *************** *************** *************** *************** *************** *************** ***************
      *************** *************** *************** *************** ***************

 CONCENTRATION WILL BE SAVED ON UNIT 2063 AT END OF TIME STEP    2, STRESS PERIOD    1


  MASS BUDGET FOR ENTIRE MODEL AT END OF TIME STEP    2, STRESS PERIOD   1
  ---------------------------------------------------------------------------------------------------

     CUMULATIVE MASS      M       RATES FOR THIS TIME STEP      M/T          PACKAGE NAME    
     ------------------                 ------------------------                     ----------------

           IN:                                      IN:
           ---                                      ---
     STORAGE-AQUEOUS =       1.4397E-07       STORAGE-AQUEOUS =       5.5783E-09     MST                              
                 CHD =           0.9883                   CHD =       4.9416E-02     SSM_CHD                          
                 CNC =           0.1905                   CNC =       9.4527E-03     CNC                              

            TOTAL IN =           1.1788              TOTAL IN =       5.8869E-02

          OUT:                                     OUT:
          ----                                     ----
     STORAGE-AQUEOUS =           0.6295       STORAGE-AQUEOUS =       2.8389E-02     MST                              
                 CHD =           0.2763                   CHD =       1.3813E-02     SSM_CHD                          
                 CNC =           0.2730                   CNC =       1.6667E-02     CNC                              

           TOTAL OUT =           1.1788             TOTAL OUT =       5.8869E-02

            IN - OUT =       4.6539E-09              IN - OUT =       2.1063E-10

 PERCENT DISCREPANCY =           0.00     PERCENT DISCREPANCY =           0.00




         TIME SUMMARY AT END OF TIME STEP    2 IN STRESS PERIOD    1
                    SECONDS     MINUTES      HOURS       DAYS        YEARS
                    -----------------------------------------------------------
   TIME STEP LENGTH 8.64000E+05  14400.      240.00      10.000     2.73785E-02
 STRESS PERIOD TIME 1.72800E+06  28800.      480.00      20.000     5.47570E-02
         TOTAL TIME 1.72800E+06  28800.      480.00      20.000     5.47570E-02


end timestep


start timestep kper="1" kstp="3" mode="normal"

 UBDSV06 SAVING  SOURCE-SINK MIX IN MODEL K                PACKAGE K               CONNECTED TO MODEL K                PACKAGE SSM              ON UNIT   2062 AT TIME STEP      3, STRESS PERIOD      1
 UBDSV06 SAVING              CNC IN MODEL K                PACKAGE K               CONNECTED TO MODEL K                PACKAGE CNC              ON UNIT   2062 AT TIME STEP      3, STRESS PERIOD      1

 SSM PACKAGE (SSM) FLOW RATES   PERIOD      1   STEP        3
 ------------------------------------------------------------------------------------------------
   NUMBER   CELLID                   BOUND Q        SSM CONC          RATE         PACKAGE NAME  
 ------------------------------------------------------------------------------------------------
     1      (1,1,1)               2.08333325E-02  0.79065511      1.64719808E-02       CHD       
     2      (2,1,1)               2.08333325E-02  0.79065511      1.64719808E-02       CHD       
     3      (3,1,1)               2.08333325E-02  0.79065511      1.64719808E-02       CHD       
     4      (4,1,1)               0.0000000       0.0000000       0.0000000            CHD       
     5      (5,1,1)               0.0000000       0.0000000       0.0000000            CHD       
     6      (6,1,1)               0.0000000       0.0000000       0.0000000            CHD       
     7      (7,1,1)               0.0000000       0.0000000       0.0000000            CHD       
     8      (8,1,1)               0.0000000       0.0000000       0.0000000            CHD       
     9      (9,1,1)               0.0000000       0.0000000       0.0000000            CHD       
     10     (10,1,1)              0.0000000       0.0000000       0.0000000            CHD       
     11     (1,1,25)             -2.08333362E-02  6.63033600E-02 -1.38132019E-03       CHD       
     12     (2,1,25)             -2.08333362E-02  6.63033600E-02 -1.38132019E-03       CHD       
     13     (3,1,25)             -2.08333362E-02  6.63033600E-02 -1.38132019E-03       CHD       
     14     (4,1,25)             -2.08333362E-02  6.63033600E-02 -1.38132019E-03       CHD       
     15     (5,1,25)             -2.08333362E-02  6.63033599E-02 -1.38132019E-03       CHD       
     16     (6,1,25)             -2.08333362E-02  6.63033599E-02 -1.38132019E-03       CHD       
     17     (7,1,25)             -2.08333362E-02  6.63033599E-02 -1.38132019E-03       CHD       
     18     (8,1,25)             -2.08333362E-02  6.63033599E-02 -1.38132019E-03       CHD       
     19     (9,1,25)             -2.08333362E-02  6.63033599E-02 -1.38132019E-03       CHD       
     20     (10,1,25)            -2.08333362E-02  6.63033599E-02 -1.38132019E-03       CHD       
 ------------------------------------------------------------------------------------------------




 CNC PACKAGE (CNC) FLOW RATES   PERIOD      1   STEP        3
 -----------------------------------------------
   NUMBER   CELLID                    RATE      
 -----------------------------------------------
     1      (4,1,1)              -1.92838767E-02
     2      (5,1,1)               1.27890007E-03
     3      (6,1,1)               1.33148741E-03
     4      (7,1,1)               1.35725626E-03
     5      (8,1,1)               1.36964781E-03
     6      (9,1,1)               1.37536643E-03
     7      (10,1,1)              1.37759430E-03
 -----------------------------------------------



1
  CONCENTRATION IN LAYER   1 AT END OF TIME STEP   3 IN STRESS PERIOD    1
  ---------------------------------------------------------------------------

                1               2               3               4               5               6               7               8               9              10
               11              12              13              14              15              16              17              18              19              20
               21              22              23              24              25
 ................................................................................................................................................................
   1  .2385981771     .1183490133     *************** *************** *************** *************** *************** *************** *************** ***************
      *************** *************** *************** *************** *************** *************** *************** *************** *************** ***************
      *************** *************** *************** *************** ***************
1
  CONCENTRATION IN LAYER   2 AT END OF TIME STEP   3 IN STRESS PERIOD    1
  ---------------------------------------------------------------------------

                1               2               3               4               5               6               7               8               9              10
               11              12              13              14              15              16              17              18              19              20
               21              22              23              24              25
 ................................................................................................................................................................
   1  .2164414467     .1114127157     *************** *************** *************** *************** *************** *************** *************** ***************
      *************** *************** *************** *************** *************** *************** *************** *************** *************** ***************
      *************** *************** *************** *************** ***************
1
  CONCENTRATION IN LAYER   3 AT END OF TIME STEP   3 IN STRESS PERIOD    1
  ---------------------------------------------------------------------------

                1               2               3               4               5               6               7               8               9              10
               11              12              13              14              15              16              17              18              19              20
               21              22              23              24              25
 ................................................................................................................................................................
   1  .1644977558     *************** *************** *************** *************** *************** *************** *************** *************** ***************
      *************** *************** *************** *************** *************** *************** *************** *************** *************** ***************
      *************** *************** *************** *************** ***************
1
  CONCENTRATION IN LAYER   4 AT END OF TIME STEP   3 IN STRESS PERIOD    1
  ---------------------------------------------------------------------------

                1               2               3               4               5               6               7               8               9              10
               11              12              13              14              15              16              17              18              19              20
               21              22              23              24              25
 ................................................................................................................................................................
   1  *************** *************** *************** *************** *************** *************** *************** *************** *************** ***************
      *************** *************** *************** *************** *************** *************** *************** *************** *************** ***************
      *************** *************** *************** *************** ***************
1
  CONCENTRATION IN LAYER   5 AT END OF TIME STEP   3 IN STRESS PERIOD    1
  ---------------------------------------------------------------------------

                1               2               3               4               5               6               7               8               9              10
               11              12              13              14              15              16              17              18              19              20
               21              22              23              24              25
 ................................................................................................................................................................
   1  *************** *************** *************** *************** *************** *************** *************** *************** *************** ***************
      *************** *************** *************** *************** *************** *************** *************** *************** *************** ***************
      *************** *************** *************** *************** ***************
1
  CONCENTRATION IN LAYER   6 AT END OF TIME STEP   3 IN STRESS PERIOD    1
  ---------------------------------------------------------------------------

                1               2               3               4               5               6               7               8               9              10
               11              12              13              14              15              16              17              18              19              20
               21              22              23              24              25
 ................................................................................................................................................................
   1  *************** *************** *************** *************** *************** *************** *************** *************** *************** ***************
      *************** *************** *************** *************** *************** *************** *************** *************** *************** ***************
      *************** *************** *************** *************** ***************
1
  CONCENTRATION IN LAYER   7 AT END OF TIME STEP   3 IN STRESS PERIOD    1
  ---------------------------------------------------------------------------

                1               2               3               4               5               6               7               8               9              10
               11              12              13              14              15              16              17              18              19              20
               21              22              23              24              25
 ................................................................................................................................................................
   1  *************** *************** *************** *************** *************** *************** *************** *************** *************** ***************
      *************** *************** *************** *************** *************** *************** *************** *************** *************** ***************
      *************** *************** *************** *************** ***************
1
  CONCENTRATION IN LAYER   8 AT END OF TIME STEP   3 IN STRESS PERIOD    1
  ---------------------------------------------------------------------------

                1               2               3               4               5               6               7               8               9              10
               11              12              13              14              15              16              17              18              19              20
               21              22              23              24              25
 ................................................................................................................................................................
   1  *************** *************** *************** *************** *************** *************** *************** *************** *************** ***************
      *************** *************** *************** *************** *************** *************** *************** *************** *************** ***************
      *************** *************** *************** *************** ***************
1
  CONCENTRATION IN LAYER   9 AT END OF TIME STEP   3 IN STRESS PERIOD    1
  ---------------------------------------------------------------------------

                1               2               3               4               5               6               7               8               9              10
               11              12              13              14              15              16              17              18              19              20
               21              22              23              24              25
 ................................................................................................................................................................
   1  *************** *************** *************** *************** *************** *************** *************** *************** *************** ***************
      *************** *************** *************** *************** *************** *************** *************** *************** *************** ***************
      *************** *************** *************** *************** ***************
1
  CONCENTRATION IN LAYER  10 AT END OF TIME STEP   3 IN STRESS PERIOD    1
  ---------------------------------------------------------------------------

                1               2               3               4               5               6               7               8               9              10
               11              12              13              14              15              16              17              18              19              20
               21              22              23              24              25
 ................................................................................................................................................................
   1  *************** *************** *************** *************** *************** *************** *************** *************** *************** ***************
      *************** *************** *************** *************** *************** *************** *************** *************** *************** ***************
      *************** *************** *************** *************** ***************

 CONCENTRATION WILL BE SAVED ON UNIT 2063 AT END OF TIME STEP    3, STRESS PERIOD    1


  MASS BUDGET FOR ENTIRE MODEL AT END OF TIME STEP    3, STRESS PERIOD   1
  ---------------------------------------------------------------------------------------------------

     CUMULATIVE MASS      M       RATES FOR THIS TIME STEP      M/T          PACKAGE NAME    
     ------------------                 ------------------------                     ----------------

           IN:                                      IN:
           ---                                      ---
     STORAGE-AQUEOUS =       1.7292E-07       STORAGE-AQUEOUS =       2.8950E-09     MST                              
                 CHD =           1.4825                   CHD =       4.9416E-02     SSM_CHD                          
                 CNC =           0.2831                   CNC =       9.2635E-03     CNC                              

            TOTAL IN =           1.7656              TOTAL IN =       5.8679E-02

          OUT:                                     OUT:
          ----                                     ----
     STORAGE-AQUEOUS =           0.8736       STORAGE-AQUEOUS =       2.4409E-02     MST                              
                 CHD =           0.4144                   CHD =       1.3813E-02     SSM_CHD                          
                 CNC =           0.4776                   CNC =       2.0457E-02     CNC                              

           TOTAL OUT =           1.7656             TOTAL OUT =       5.8679E-02

            IN - OUT =       9.1555E-09              IN - OUT =       4.5016E-10

 PERCENT DISCREPANCY =           0.00     PERCENT DISCREPANCY =           0.00




         TIME SUMMARY AT END OF TIME STEP    3 IN STRESS PERIOD    1
                    SECONDS     MINUTES      HOURS       DAYS        YEARS
                    -----------------------------------------------------------
   TIME STEP LENGTH 8.64000E+05  14400.      240.00      10.000     2.73785E-02
 STRESS PERIOD TIME 2.59200E+06  43200.      720.00      30.000     8.21355E-02
         TOTAL TIME 2.59200E+06  43200.      720.00      30.000     8.21355E-02


end timestep


start timestep kper="1" kstp="4" mode="normal"

 UBDSV06 SAVING  SOURCE-SINK MIX IN MODEL K                PACKAGE K               CONNECTED TO MODEL K                PACKAGE SSM              ON UNIT   2062 AT TIME STEP      4, STRESS PERIOD      1
 UBDSV06 SAVING              CNC IN MODEL K                PACKAGE K               CONNECTED TO MODEL K                PACKAGE CNC              ON UNIT   2062 AT TIME STEP      4, STRESS PERIOD      1

 SSM PACKAGE (SSM) FLOW RATES   PERIOD      1   STEP        4
 ------------------------------------------------------------------------------------------------
   NUMBER   CELLID                   BOUND Q        SSM CONC          RATE         PACKAGE NAME  
 ------------------------------------------------------------------------------------------------
     1      (1,1,1)               2.08333321E-02  0.79065511      1.64719805E-02       CHD       
     2      (2,1,1)               2.08333321E-02  0.79065511      1.64719805E-02       CHD       
     3      (3,1,1)               2.08333321E-02  0.79065511      1.64719805E-02       CHD       
     4      (4,1,1)               0.0000000       0.0000000       0.0000000            CHD       
     5      (5,1,1)               0.0000000       0.0000000       0.0000000            CHD       
     6      (6,1,1)               0.0000000       0.0000000       0.0000000            CHD       
     7      (7,1,1)               0.0000000       0.0000000       0.0000000            CHD       
     8      (8,1,1)               0.0000000       0.0000000       0.0000000            CHD       
     9      (9,1,1)               0.0000000       0.0000000       0.0000000            CHD       
     10     (10,1,1)              0.0000000       0.0000000       0.0000000            CHD       
     11     (1,1,25)             -2.08333356E-02  6.63033599E-02 -1.38132015E-03       CHD       
     12     (2,1,25)             -2.08333356E-02  6.63033599E-02 -1.38132015E-03       CHD       
     13     (3,1,25)             -2.08333356E-02  6.63033599E-02 -1.38132015E-03       CHD       
     14     (4,1,25)             -2.08333356E-02  6.63033599E-02 -1.38132015E-03       CHD       
     15     (5,1,25)             -2.08333356E-02  6.63033599E-02 -1.38132015E-03       CHD       
     16     (6,1,25)             -2.08333356E-02  6.63033599E-02 -1.38132015E-03       CHD       
     17     (7,1,25)             -2.08333356E-02  6.63033599E-02 -1.38132015E-03       CHD       
     18     (8,1,25)             -2.08333356E-02  6.63033599E-02 -1.38132015E-03       CHD       
     19     (9,1,25)             -2.08333356E-02  6.63033599E-02 -1.38132015E-03       CHD       
     20     (10,1,25)            -2.08333356E-02  6.63033599E-02 -1.38132015E-03       CHD       
 ------------------------------------------------------------------------------------------------




 CNC PACKAGE (CNC) FLOW RATES   PERIOD      1   STEP        4
 -----------------------------------------------
   NUMBER   CELLID                    RATE      
 -----------------------------------------------
     1      (4,1,1)              -2.18889501E-02
     2      (5,1,1)               1.22432779E-03
     3      (6,1,1)               1.30022334E-03
     4      (7,1,1)               1.33974860E-03
     5      (8,1,1)               1.35988734E-03
     6      (9,1,1)               1.36966641E-03
     7      (10,1,1)              1.37361900E-03
 -----------------------------------------------



1
  CONCENTRATION IN LAYER   1 AT END OF TIME STEP   4 IN STRESS PERIOD    1
  ---------------------------------------------------------------------------

                1               2               3               4               5               6               7               8               9              10
               11              12              13              14              15              16              17              18              19              20
               21              22              23              24              25
 ................................................................................................................................................................
   1  .2647051936     .1362345549     *************** *************** *************** *************** *************** *************** *************** ***************
      *************** *************** *************** *************** *************** *************** *************** *************** *************** ***************
      *************** *************** *************** *************** ***************
1
  CONCENTRATION IN LAYER   2 AT END OF TIME STEP   4 IN STRESS PERIOD    1
  ---------------------------------------------------------------------------

                1               2               3               4               5               6               7               8               9              10
               11              12              13              14              15              16              17              18              19              20
               21              22              23              24              25
 ................................................................................................................................................................
   1  .2376835330     .1269654855     *************** *************** *************** *************** *************** *************** *************** ***************
      *************** *************** *************** *************** *************** *************** *************** *************** *************** ***************
      *************** *************** *************** *************** ***************
1
  CONCENTRATION IN LAYER   3 AT END OF TIME STEP   4 IN STRESS PERIOD    1
  ---------------------------------------------------------------------------

                1               2               3               4               5               6               7               8               9              10
               11              12              13              14              15              16              17              18              19              20
               21              22              23              24              25
 ................................................................................................................................................................
   1  .1765592791     .1097981357     *************** *************** *************** *************** *************** *************** *************** ***************
      *************** *************** *************** *************** *************** *************** *************** *************** *************** ***************
      *************** *************** *************** *************** ***************
1
  CONCENTRATION IN LAYER   4 AT END OF TIME STEP   4 IN STRESS PERIOD    1
  ---------------------------------------------------------------------------

                1               2               3               4               5               6               7               8               9              10
               11              12              13              14              15              16              17              18              19              20
               21              22              23              24              25
 ................................................................................................................................................................
   1  *************** *************** *************** *************** *************** *************** *************** *************** *************** ***************
      *************** *************** *************** *************** *************** *************** *************** *************** *************** ***************
      *************** *************** *************** *************** ***************
1
  CONCENTRATION IN LAYER   5 AT END OF TIME STEP   4 IN STRESS PERIOD    1
  ---------------------------------------------------------------------------

                1               2               3               4               5               6               7               8               9              10
               11              12              13              14              15              16              17              18              19              20
               21              22              23              24              25
 ................................................................................................................................................................
   1  *************** *************** *************** *************** *************** *************** *************** *************** *************** ***************
      *************** *************** *************** *************** *************** *************** *************** *************** *************** ***************
      *************** *************** *************** *************** ***************
1
  CONCENTRATION IN LAYER   6 AT END OF TIME STEP   4 IN STRESS PERIOD    1
  ---------------------------------------------------------------------------

                1               2               3               4               5               6               7               8               9              10
               11              12              13              14              15              16              17              18              19              20
               21              22              23              24              25
 ................................................................................................................................................................
   1  *************** *************** *************** *************** *************** *************** *************** *************** *************** ***************
      *************** *************** *************** *************** *************** *************** *************** *************** *************** ***************
      *************** *************** *************** *************** ***************
1
  CONCENTRATION IN LAYER   7 AT END OF TIME STEP   4 IN STRESS PERIOD    1
  ---------------------------------------------------------------------------

                1               2               3               4               5               6               7               8               9              10
               11              12              13              14              15              16              17              18              19              20
               21              22              23              24              25
 ................................................................................................................................................................
   1  *************** *************** *************** *************** *************** *************** *************** *************** *************** ***************
      *************** *************** *************** *************** *************** *************** *************** *************** *************** ***************
      *************** *************** *************** *************** ***************
1
  CONCENTRATION IN LAYER   8 AT END OF TIME STEP   4 IN STRESS PERIOD    1
  ---------------------------------------------------------------------------

                1               2               3               4               5               6               7               8               9              10
               11              12              13              14              15              16              17              18              19              20
               21              22              23              24              25
 ................................................................................................................................................................
   1  *************** *************** *************** *************** *************** *************** *************** *************** *************** ***************
      *************** *************** *************** *************** *************** *************** *************** *************** *************** ***************
      *************** *************** *************** *************** ***************
1
  CONCENTRATION IN LAYER   9 AT END OF TIME STEP   4 IN STRESS PERIOD    1
  ---------------------------------------------------------------------------

                1               2               3               4               5               6               7               8               9              10
               11              12              13              14              15              16              17              18              19              20
               21              22              23              24              25
 ................................................................................................................................................................
   1  *************** *************** *************** *************** *************** *************** *************** *************** *************** ***************
      *************** *************** *************** *************** *************** *************** *************** *************** *************** ***************
      *************** *************** *************** *************** ***************
1
  CONCENTRATION IN LAYER  10 AT END OF TIME STEP   4 IN STRESS PERIOD    1
  ---------------------------------------------------------------------------

                1               2               3               4               5               6               7               8               9              10
               11              12              13              14              15              16              17              18              19              20
               21              22              23              24              25
 ................................................................................................................................................................
   1  *************** *************** *************** *************** *************** *************** *************** *************** *************** ***************
      *************** *************** *************** *************** *************** *************** *************** *************** *************** ***************
      *************** *************** *************** *************** ***************

 CONCENTRATION WILL BE SAVED ON UNIT 2063 AT END OF TIME STEP    4, STRESS PERIOD    1


  MASS BUDGET FOR ENTIRE MODEL AT END OF TIME STEP    4, STRESS PERIOD   1
  ---------------------------------------------------------------------------------------------------

     CUMULATIVE MASS      M       RATES FOR THIS TIME STEP      M/T          PACKAGE NAME    
     ------------------                 ------------------------                     ----------------

           IN:                                      IN:
           ---                                      ---
     STORAGE-AQUEOUS =       1.9291E-07       STORAGE-AQUEOUS =       1.9989E-09     MST                              
                 CHD =           1.9766                   CHD =       4.9416E-02     SSM_CHD                          
                 CNC =           0.3736                   CNC =       9.0485E-03     CNC                              

            TOTAL IN =           2.3502              TOTAL IN =       5.8464E-02

          OUT:                                     OUT:
          ----                                     ----
     STORAGE-AQUEOUS =           1.0904       STORAGE-AQUEOUS =       2.1681E-02     MST                              
                 CHD =           0.5525                   CHD =       1.3813E-02     SSM_CHD                          
                 CNC =           0.7073                   CNC =       2.2970E-02     CNC                              

           TOTAL OUT =           2.3502             TOTAL OUT =       5.8464E-02

            IN - OUT =       1.1669E-08              IN - OUT =       2.5133E-10

 PERCENT DISCREPANCY =           0.00     PERCENT DISCREPANCY =           0.00




         TIME SUMMARY AT END OF TIME STEP    4 IN STRESS PERIOD    1
                    SECONDS     MINUTES      HOURS       DAYS        YEARS
                    -----------------------------------------------------------
   TIME STEP LENGTH 8.64000E+05  14400.      240.00      10.000     2.73785E-02
 STRESS PERIOD TIME 3.45600E+06  57600.      960.00      40.000     0.10951    
         TOTAL TIME 3.45600E+06  57600.      960.00      40.000     0.10951    


end timestep


start timestep kper="1" kstp="5" mode="normal"

 UBDSV06 SAVING  SOURCE-SINK MIX IN MODEL K                PACKAGE K               CONNECTED TO MODEL K                PACKAGE SSM              ON UNIT   2062 AT TIME STEP      5, STRESS PERIOD      1
 UBDSV06 SAVING              CNC IN MODEL K                PACKAGE K               CONNECTED TO MODEL K                PACKAGE CNC              ON UNIT   2062 AT TIME STEP      5, STRESS PERIOD      1

 SSM PACKAGE (SSM) FLOW RATES   PERIOD      1   STEP        5
 ------------------------------------------------------------------------------------------------
   NUMBER   CELLID                   BOUND Q        SSM CONC          RATE         PACKAGE NAME  
 ------------------------------------------------------------------------------------------------
     1      (1,1,1)               2.08333321E-02  0.79065511      1.64719805E-02       CHD       
     2      (2,1,1)               2.08333321E-02  0.79065511      1.64719805E-02       CHD       
     3      (3,1,1)               2.08333321E-02  0.79065511      1.64719805E-02       CHD       
     4      (4,1,1)               0.0000000       0.0000000       0.0000000            CHD       
     5      (5,1,1)               0.0000000       0.0000000       0.0000000            CHD       
     6      (6,1,1)               0.0000000       0.0000000       0.0000000            CHD       
     7      (7,1,1)               0.0000000       0.0000000       0.0000000            CHD       
     8      (8,1,1)               0.0000000       0.0000000       0.0000000            CHD       
     9      (9,1,1)               0.0000000       0.0000000       0.0000000            CHD       
     10     (10,1,1)              0.0000000       0.0000000       0.0000000            CHD       
     11     (1,1,25)             -2.08333353E-02  6.63033599E-02 -1.38132013E-03       CHD       
     12     (2,1,25)             -2.08333353E-02  6.63033599E-02 -1.38132013E-03       CHD       
[...]
               21              22              23              24              25
 ................................................................................................................................................................
   1  *************** *************** *************** .1115094600     .1198783235     .1243079894     .1265601086     .1276900192     .1282536005     .1285312978    
      .1286608970     .1287009681     .1286884439     .1286357878     .1285303190     .1283579435     .1280971050     .1277188259     .1271876881     .1264632851    
      .1255027556     .1242655977     .1227246890     .1208981707     .1189604741    

 CONCENTRATION WILL BE SAVED ON UNIT 2063 AT END OF TIME STEP  199, STRESS PERIOD    1


  MASS BUDGET FOR ENTIRE MODEL AT END OF TIME STEP  199, STRESS PERIOD   1
  ---------------------------------------------------------------------------------------------------

     CUMULATIVE MASS      M       RATES FOR THIS TIME STEP      M/T          PACKAGE NAME    
     ------------------                 ------------------------                     ----------------

           IN:                                      IN:
           ---                                      ---
     STORAGE-AQUEOUS =       3.3688E-07       STORAGE-AQUEOUS =           0.0000     MST                              
                 CHD =          98.3377                   CHD =       4.9416E-02     SSM_CHD                          
                 CNC =          13.6450                   CNC =       6.7123E-03     CNC                              

            TOTAL IN =         111.9827              TOTAL IN =       5.6128E-02

          OUT:                                     OUT:
          ----                                     ----
     STORAGE-AQUEOUS =          21.3624       STORAGE-AQUEOUS =       2.0548E-03     MST                              
                 CHD =          33.0031                   CHD =       2.4783E-02     SSM_CHD                          
                 CNC =          57.6172                   CNC =       2.9290E-02     CNC                              

           TOTAL OUT =         111.9827             TOTAL OUT =       5.6128E-02

            IN - OUT =       6.0847E-07              IN - OUT =      -6.6025E-09

 PERCENT DISCREPANCY =           0.00     PERCENT DISCREPANCY =          -0.00




         TIME SUMMARY AT END OF TIME STEP  199 IN STRESS PERIOD    1
                    SECONDS     MINUTES      HOURS       DAYS        YEARS
                    -----------------------------------------------------------
   TIME STEP LENGTH 8.64000E+05  14400.      240.00      10.000     2.73785E-02
 STRESS PERIOD TIME 1.71936E+08 2.86560E+06  47760.      1990.0      5.4483    
         TOTAL TIME 1.71936E+08 2.86560E+06  47760.      1990.0      5.4483    


end timestep


start timestep kper="1" kstp="200" mode="normal"

 UBDSV06 SAVING  SOURCE-SINK MIX IN MODEL K                PACKAGE K               CONNECTED TO MODEL K                PACKAGE SSM              ON UNIT   2062 AT TIME STEP    200, STRESS PERIOD      1
 UBDSV06 SAVING              CNC IN MODEL K                PACKAGE K               CONNECTED TO MODEL K                PACKAGE CNC              ON UNIT   2062 AT TIME STEP    200, STRESS PERIOD      1

 SSM PACKAGE (SSM) FLOW RATES   PERIOD      1   STEP      200
 ------------------------------------------------------------------------------------------------
   NUMBER   CELLID                   BOUND Q        SSM CONC          RATE         PACKAGE NAME  
 ------------------------------------------------------------------------------------------------
     1      (1,1,1)               2.08333330E-02  0.79065511      1.64719812E-02       CHD       
     2      (2,1,1)               2.08333330E-02  0.79065511      1.64719812E-02       CHD       
     3      (3,1,1)               2.08333330E-02  0.79065511      1.64719812E-02       CHD       
     4      (4,1,1)               0.0000000       0.0000000       0.0000000            CHD       
     5      (5,1,1)               0.0000000       0.0000000       0.0000000            CHD       
     6      (6,1,1)               0.0000000       0.0000000       0.0000000            CHD       
     7      (7,1,1)               0.0000000       0.0000000       0.0000000            CHD       
     8      (8,1,1)               0.0000000       0.0000000       0.0000000            CHD       
     9      (9,1,1)               0.0000000       0.0000000       0.0000000            CHD       
     10     (10,1,1)              0.0000000       0.0000000       0.0000000            CHD       
     11     (1,1,25)             -2.08333337E-02  0.11928064     -2.48501332E-03       CHD       
     12     (2,1,25)             -2.08333337E-02  0.11928063     -2.48501326E-03       CHD       
     13     (3,1,25)             -2.08333337E-02  0.11928063     -2.48501319E-03       CHD       
     14     (4,1,25)             -2.08333337E-02  0.11928063     -2.48501313E-03       CHD       
     15     (5,1,25)             -2.08333337E-02  0.11928063     -2.48501306E-03       CHD       
     16     (6,1,25)             -2.08333337E-02  0.11928062     -2.48501300E-03       CHD       
     17     (7,1,25)             -2.08333337E-02  0.11928062     -2.48501292E-03       CHD       
     18     (8,1,25)             -2.08333337E-02  0.11928061     -2.48501284E-03       CHD       
     19     (9,1,25)             -2.08333337E-02  0.11928061     -2.48501273E-03       CHD       
     20     (10,1,25)            -2.08333337E-02  0.11928060     -2.48501259E-03       CHD       
 ------------------------------------------------------------------------------------------------




 CNC PACKAGE (CNC) FLOW RATES   PERIOD      1   STEP      200
 -----------------------------------------------
   NUMBER   CELLID                    RATE      
 -----------------------------------------------
     1      (4,1,1)              -2.88701387E-02
     2      (5,1,1)               7.31890050E-04
     3      (6,1,1)               9.35535626E-04
     4      (7,1,1)               1.06619126E-03
     5      (8,1,1)               1.14761161E-03
     6      (9,1,1)               1.19479123E-03
     7      (10,1,1)              1.21640441E-03
 -----------------------------------------------



1
  CONCENTRATION IN LAYER   1 AT END OF TIME STEP 200 IN STRESS PERIOD    1
  ---------------------------------------------------------------------------

                1               2               3               4               5               6               7               8               9              10
               11              12              13              14              15              16              17              18              19              20
               21              22              23              24              25
 ................................................................................................................................................................
   1  .3304416858     .2246481924     .1693650294     .1475343459     .1379436996     .1333548990     .1310862793     .1299537495     .1293858070     .1290976178    
      .1289438559     .1288481003     .1287690712     .1286807411     .1285613084     .1283879566     .1281345057     .1277701839     .1272592150     .1265614248    
      .1256342608     .1244372705     .1229428151     .1211674009     .1192806374    
1
  CONCENTRATION IN LAYER   2 AT END OF TIME STEP 200 IN STRESS PERIOD    1
  ---------------------------------------------------------------------------

                1               2               3               4               5               6               7               8               9              10
               11              12              13              14              15              16              17              18              19              20
               21              22              23              24              25
 ................................................................................................................................................................
   1  .2910324367     .2072810061     .1638118261     .1454849932     .1370279797     .1329095841     .1308647087     .1298429988     .1293304167     .1290699247    
      .1289299813     .1288410549     .1287655050     .1286789911     .1285604863     .1283875842     .1281343402     .1277701104     .1272591822     .1265614099    
      .1256342540     .1244372677     .1229428147     .1211673981     .1192806345    
1
  CONCENTRATION IN LAYER   3 AT END OF TIME STEP 200 IN STRESS PERIOD    1
  ---------------------------------------------------------------------------

                1               2               3               4               5               6               7               8               9              10
               11              12              13              14              15              16              17              18              19              20
               21              22              23              24              25
 ................................................................................................................................................................
   1  .2068953847     .1761593882     .1539127917     .1416965888     .1352971055     .1320631673     .1304432428     .1296323262     .1292250553     .1290172515    
      .1289035939     .1288276421     .1287587180     .1286756652     .1285589258     .1283868774     .1281340259     .1277699709     .1272591197     .1265613816    
      .1256342411     .1244372619     .1229428125     .1211673964     .1192806313    
1
  CONCENTRATION IN LAYER   4 AT END OF TIME STEP 200 IN STRESS PERIOD    1
  ---------------------------------------------------------------------------

                1               2               3               4               5               6               7               8               9              10
               11              12              13              14              15              16              17              18              19              20
               21              22              23              24              25
 ................................................................................................................................................................
   1  *************** .1401430247     .1416641704     .1366916525     .1329335640     .1308993928     .1298631395     .1293423358     .1290800318     .1289447596    
      .1288672876     .1288091515     .1287493671     .1286710933     .1285567849     .1283859082     .1281335945     .1277697791     .1272590336     .1265613426    
      .1256342232     .1244372538     .1229428090     .1211673945     .1192806283    
1
  CONCENTRATION IN LAYER   5 AT END OF TIME STEP 200 IN STRESS PERIOD    1
  ---------------------------------------------------------------------------

                1               2               3               4               5               6               7               8               9              10
               11              12              13              14              15              16              17              18              19              20
               21              22              23              24              25
 ................................................................................................................................................................
   1  *************** .1161795793     .1298244739     .1308995218     .1301685351     .1295331692     .1291812154     .1290013978     .1289095379     .1288595563    
      .1288246461     .1287873557     .1287383501     .1286657238     .1285542787     .1283847746     .1281330892     .1277695539     .1272589325     .1265612967    
      .1256342023     .1244372442     .1229428048     .1211673924     .1192806252    
1
  CONCENTRATION IN LAYER   6 AT END OF TIME STEP 200 IN STRESS PERIOD    1
  ---------------------------------------------------------------------------

                1               2               3               4               5               6               7               8               9              10
               11              12              13              14              15              16              17              18              19              20
               21              22              23              24              25
 ................................................................................................................................................................
   1  *************** .1005395988     .1191631508     .1252281212     .1272904436     .1280970488     .1284641137     .1286428747     .1287302626     .1287700184    
      .1287799365     .1287643035     .1287266999     .1286600725     .1285516560     .1283835901     .1281325601     .1277693175     .1272588262     .1265612485    
      .1256341802     .1244372341     .1229428004     .1211673904     .1192806220    
1
  CONCENTRATION IN LAYER   7 AT END OF TIME STEP 200 IN STRESS PERIOD    1
  ---------------------------------------------------------------------------

                1               2               3               4               5               6               7               8               9              10
               11              12              13              14              15              16              17              18              19              20
               21              22              23              24              25
 ................................................................................................................................................................
   1  *************** *************** .1104003892     .1201097795     .1246011528     .1267363147     .1277823111     .1283018589     .1285597438     .1286847946    
      .1287380460     .1287420535     .1287153981     .1286546619     .1285491737     .1283824720     .1281320594     .1277690931     .1272587250     .1265612026    
      .1256341592     .1244372245     .1229427962     .1211673887     .1192806184    
1
  CONCENTRATION IN LAYER   8 AT END OF TIME STEP 200 IN STRESS PERIOD    1
  ---------------------------------------------------------------------------

                1               2               3               4               5               6               7               8               9              10
               11              12              13              14              15              16              17              18              19              20
               21              22              23              24              25
 ................................................................................................................................................................
   1  *************** *************** .1038243421     .1159430893     .1223458990     .1255826682     .1272025462     .1280117457     .1284146798     .1286122878    
      .1287021533     .1287239684     .1287052792     .1286499718     .1285470716     .1283815288     .1281316357     .1277689025     .1272586390     .1265611635    
      .1256341414     .1244372164     .1229427928     .1211673875     .1192806142    
1
  CONCENTRATION IN LAYER   9 AT END OF TIME STEP 200 IN STRESS PERIOD    1
  ---------------------------------------------------------------------------

                1               2               3               4               5               6               7               8               9              10
               11              12              13              14              15              16              17              18              19              20
               21              22              23              24              25
 ................................................................................................................................................................
   1  *************** *************** *************** .1130160116     .1207248615     .1247467307     .1267814694     .1278009518     .1283092777     .1285596043    
      .1286760072     .1287111243     .1286977456     .1286465117     .1285455482     .1283808486     .1281313292     .1277687642     .1272585766     .1265611352    
      .1256341284     .1244372105     .1229427905     .1211673874     .1192806091    
1
  CONCENTRATION IN LAYER  10 AT END OF TIME STEP 200 IN STRESS PERIOD    1
  ---------------------------------------------------------------------------

                1               2               3               4               5               6               7               8               9              10
               11              12              13              14              15              16              17              18              19              20
               21              22              23              24              25
 ................................................................................................................................................................
   1  *************** *************** *************** .1115094619     .1198783292     .1243080052     .1265601508     .1276901268     .1282538623     .1285319059    
      .1286622467     .1287044459     .1286937388     .1286446772     .1285447482     .1283804926     .1281311686     .1277686916     .1272585437     .1265611203    
      .1256341217     .1244372075     .1229427896     .1211673887     .1192806023    

 CONCENTRATION WILL BE SAVED ON UNIT 2063 AT END OF TIME STEP  200, STRESS PERIOD    1


  MASS BUDGET FOR ENTIRE MODEL AT END OF TIME STEP  200, STRESS PERIOD   1
  ---------------------------------------------------------------------------------------------------

     CUMULATIVE MASS      M       RATES FOR THIS TIME STEP      M/T          PACKAGE NAME    
     ------------------                 ------------------------                     ----------------

           IN:                                      IN:
           ---                                      ---
     STORAGE-AQUEOUS =       3.3688E-07       STORAGE-AQUEOUS =           0.0000     MST                              
                 CHD =          98.8319                   CHD =       4.9416E-02     SSM_CHD                          
                 CNC =          13.7121                   CNC =       6.7123E-03     CNC                              

            TOTAL IN =         112.5440              TOTAL IN =       5.6128E-02

          OUT:                                     OUT:
          ----                                     ----
     STORAGE-AQUEOUS =          21.3823       STORAGE-AQUEOUS =       1.9881E-03     MST                              
                 CHD =          33.2516                   CHD =       2.4850E-02     SSM_CHD                          
                 CNC =          57.9101                   CNC =       2.9290E-02     CNC                              

           TOTAL OUT =         112.5440             TOTAL OUT =       5.6128E-02

            IN - OUT =       5.4338E-07              IN - OUT =      -6.5084E-09

 PERCENT DISCREPANCY =           0.00     PERCENT DISCREPANCY =          -0.00




         TIME SUMMARY AT END OF TIME STEP  200 IN STRESS PERIOD    1
                    SECONDS     MINUTES      HOURS       DAYS        YEARS
                    -----------------------------------------------------------
   TIME STEP LENGTH 8.64000E+05  14400.      240.00      10.000     2.73785E-02
 STRESS PERIOD TIME 1.72800E+08 2.88000E+06  48000.      2000.0      5.4757    
         TOTAL TIME 1.72800E+08 2.88000E+06  48000.      2000.0      5.4757    


end timestep

