                                   MODFLOW 6
                U.S. GEOLOGICAL SURVEY MODULAR HYDROLOGIC MODEL
                VERSION 6.5.0.dev0+prt (preliminary) 10/07/2023
                               ***DEVELOP MODE***

   MODFLOW 6 compiled Oct 07 2023 02:19:02 with Intel(R) Fortran Intel(R) 64
   Compiler Classic for applications running on Intel(R) 64, Version 2021.7.0
                             Build 20220726_000000

This software is preliminary or provisional and is subject to 
revision. It is being provided to meet the need for timely best 
science. The software has not received final approval by the U.S. 
Geological Survey (USGS). No warranty, expressed or implied, is made 
by the USGS or the U.S. Government as to the functionality of the 
software and related material nor shall the fact of release 
constitute any such warranty. The software is provided on the 
condition that neither the USGS nor the U.S. Government shall be held 
liable for any damages resulting from the authorized or unauthorized 
use of the software.


As a work of the United States Government, this USGS product is 
in the public domain within the United States. You can copy, 
modify, distribute, and perform the work, even for commercial 
purposes, all without asking permission. Additionally, USGS 
waives copyright and related rights in the work worldwide 
through CC0 1.0 Universal Public Domain Dedication 
(https://creativecommons.org/publicdomain/zero/1.0/).

The following GNU Lesser General Public License (LGPL) libraries
are used in this USGS product:

    SPARSKIT version 2.0
      ilut, luson, and qsplit 
      (https://www-users.cse.umn.edu/~saad/software/SPARSKIT/)

    RCM - Reverse Cuthill McKee Ordering
      (https://people.math.sc.edu/Burkardt/f_src/rcm/rcm.html)

    BLAS - Basic Linear Algebra Subprograms Level 1
      (https://people.math.sc.edu/Burkardt/f_src/blas1_d/blas1_d.html)

    SPARSEKIT - Sparse Matrix Utility Package
      amux, dperm, dvperm, rperm, and cperm
      (https://people.sc.fsu.edu/~jburkardt/f77_src/sparsekit/sparsekit.html)

The following BSD-3 License libraries are used in this USGS product:

    Modern Fortran DAG Library
      Copyright (c) 2018, Jacob Williams
      All rights reserved.
      (https://github.com/jacobwilliams/daglib)

MODFLOW 6 compiler options: /Isrc\libmf6core.a.p /Isrc /I..\src
/Isrc\libmf6_external.a.p /MTd /nologo /warn:general /warn:truncated_source
/stand:f08 /Zi /traceback /O2 /fpe:0 /heap-arrays:0 /traceback /fpp
/Qdiag-disable:7416 /Qdiag-disable:7025 /Qdiag-disable:5268
/Fdsrc\libmf6core.a.p\Utilities_compilerversion.F90.pdb
/module:src\libmf6core.a.p
/Fosrc/libmf6core.a.p/Utilities_compilerversion.F90.obj /c

System command used to initiate simulation:
c:\Users\portega\anaconda3\envs\mf6rtm\python.exe -m ipykernel_launcher --f=c:\Users\portega\AppData\Roaming\jupyter\runtime\kernel-v2-11124I64NdprUiCNJ.json

MODFLOW was compiled using uniform precision.

Real Variables
  KIND: 8
  TINY (smallest non-zero value):    2.225074-308
  HUGE (largest value):    1.797693+308
  PRECISION: 15
  SIZE IN BITS: 64

Integer Variables
  KIND: 4
  HUGE (largest value): 2147483647
  SIZE IN BITS: 32

Long Integer Variables
  KIND: 8
  HUGE (largest value): 9223372036854775807
  SIZE IN BITS: 64

Logical Variables
  KIND: 4
  SIZE IN BITS: 32
 

 OPENED mfsim.nam
 FILE TYPE:NAM6      UNIT 9052   STATUS:OLD                 
 FORMAT:FORMATTED              ACCESS:SEQUENTIAL          
 ACTION:READ                

 # File generated by Flopy version 3.5.0.dev0 on 05/31/2024 at 15:05:31.

 OPENED gwf.nam
 FILE TYPE:GWF6      UNIT 9053   STATUS:OLD                 
 FORMAT:FORMATTED              ACCESS:SEQUENTIAL          
 ACTION:READ                

 # File generated by Flopy version 3.5.0.dev0 on 05/31/2024 at 15:05:31.

 OPENED gwf.dis
 FILE TYPE:DIS6      UNIT 9054   STATUS:OLD                 
 FORMAT:FORMATTED              ACCESS:SEQUENTIAL          
 ACTION:READ                

 # File generated by Flopy version 3.5.0.dev0 on 05/31/2024 at 15:05:31.

 OPENED gwf.npf
 FILE TYPE:NPF6      UNIT 9078   STATUS:OLD                 
 FORMAT:FORMATTED              ACCESS:SEQUENTIAL          
 ACTION:READ                

 # File generated by Flopy version 3.5.0.dev0 on 05/31/2024 at 15:05:31.

 OPENED gwf.ic
 FILE TYPE:IC6       UNIT 9082   STATUS:OLD                 
 FORMAT:FORMATTED              ACCESS:SEQUENTIAL          
 ACTION:READ                


 OPENED gwf.oc
 FILE TYPE:OC6       UNIT 9083   STATUS:OLD                 
 FORMAT:FORMATTED              ACCESS:SEQUENTIAL          
 ACTION:READ                


 OPENED gwf.chd
 FILE TYPE:CHD6      UNIT 9084   STATUS:OLD                 
 FORMAT:FORMATTED              ACCESS:SEQUENTIAL          
 ACTION:READ                

 # File generated by Flopy version 3.5.0.dev0 on 05/31/2024 at 15:05:31.

 OPENED gwf.chdtail
 FILE TYPE:CHD6      UNIT 9085   STATUS:OLD                 
 FORMAT:FORMATTED              ACCESS:SEQUENTIAL          
 ACTION:READ                

 # File generated by Flopy version 3.5.0.dev0 on 05/31/2024 at 15:05:31.
    AUXILIARY  VARIABLE: H               
    AUXILIARY  VARIABLE: O               
    AUXILIARY  VARIABLE: CHARGE          
    AUXILIARY  VARIABLE: AL              
    AUXILIARY  VARIABLE: C               
    AUXILIARY  VARIABLE: CA              
    AUXILIARY  VARIABLE: CL              
    AUXILIARY  VARIABLE: FE              
    AUXILIARY  VARIABLE: K               
    AUXILIARY  VARIABLE: MG              
    AUXILIARY  VARIABLE: MN              
    AUXILIARY  VARIABLE: NA              
    AUXILIARY  VARIABLE: S               
    AUXILIARY  VARIABLE: SI              

 OPENED H.nam
 FILE TYPE:GWT6      UNIT 9086   STATUS:OLD                 
 FORMAT:FORMATTED              ACCESS:SEQUENTIAL          
 ACTION:READ                

 # File generated by Flopy version 3.5.0.dev0 on 05/31/2024 at 15:05:31.

 OPENED H.dis
 FILE TYPE:DIS6      UNIT 9087   STATUS:OLD                 
 FORMAT:FORMATTED              ACCESS:SEQUENTIAL          
 ACTION:READ                

 # File generated by Flopy version 3.5.0.dev0 on 05/31/2024 at 15:05:31.

 OPENED H.ic
 FILE TYPE:IC6       UNIT 9111   STATUS:OLD                 
 FORMAT:FORMATTED              ACCESS:SEQUENTIAL          
 ACTION:READ                


 OPENED H.mst
 FILE TYPE:MST6      UNIT 9112   STATUS:OLD                 
 FORMAT:FORMATTED              ACCESS:SEQUENTIAL          
 ACTION:READ                


 OPENED H.adv
 FILE TYPE:ADV6      UNIT 9113   STATUS:OLD                 
 FORMAT:FORMATTED              ACCESS:SEQUENTIAL          
 ACTION:READ                


 OPENED H.dsp
 FILE TYPE:DSP6      UNIT 9114   STATUS:OLD                 
 FORMAT:FORMATTED              ACCESS:SEQUENTIAL          
 ACTION:READ                

 # File generated by Flopy version 3.5.0.dev0 on 05/31/2024 at 15:05:31.

 OPENED H.ssm
 FILE TYPE:SSM6      UNIT 9145   STATUS:OLD                 
 FORMAT:FORMATTED              ACCESS:SEQUENTIAL          
 ACTION:READ                


 OPENED H.oc
 FILE TYPE:OC6       UNIT 9146   STATUS:OLD                 
 FORMAT:FORMATTED              ACCESS:SEQUENTIAL          
 ACTION:READ                


 OPENED H.cnc
 FILE TYPE:CNC6      UNIT 9147   STATUS:OLD                 
 FORMAT:FORMATTED              ACCESS:SEQUENTIAL          
 ACTION:READ                


 OPENED O.nam
 FILE TYPE:GWT6      UNIT 9148   STATUS:OLD                 
 FORMAT:FORMATTED              ACCESS:SEQUENTIAL          
 ACTION:READ                

 # File generated by Flopy version 3.5.0.dev0 on 05/31/2024 at 15:05:31.

 OPENED O.dis
 FILE TYPE:DIS6      UNIT 9149   STATUS:OLD                 
 FORMAT:FORMATTED              ACCESS:SEQUENTIAL          
 ACTION:READ                

 # File generated by Flopy version 3.5.0.dev0 on 05/31/2024 at 15:05:31.

 OPENED O.ic
 FILE TYPE:IC6       UNIT 9173   STATUS:OLD                 
 FORMAT:FORMATTED              ACCESS:SEQUENTIAL          
 ACTION:READ                


 OPENED O.mst
 FILE TYPE:MST6      UNIT 9174   STATUS:OLD                 
 FORMAT:FORMATTED              ACCESS:SEQUENTIAL          
 ACTION:READ                


 OPENED O.adv
 FILE TYPE:ADV6      UNIT 9175   STATUS:OLD                 
 FORMAT:FORMATTED              ACCESS:SEQUENTIAL          
 ACTION:READ                


 OPENED O.dsp
 FILE TYPE:DSP6      UNIT 9176   STATUS:OLD                 
 FORMAT:FORMATTED              ACCESS:SEQUENTIAL          
 ACTION:READ                

 # File generated by Flopy version 3.5.0.dev0 on 05/31/2024 at 15:05:31.

 OPENED O.ssm
 FILE TYPE:SSM6      UNIT 9207   STATUS:OLD                 
 FORMAT:FORMATTED              ACCESS:SEQUENTIAL          
 ACTION:READ                


 OPENED O.oc
 FILE TYPE:OC6       UNIT 9208   STATUS:OLD                 
 FORMAT:FORMATTED              ACCESS:SEQUENTIAL          
 ACTION:READ                


 OPENED O.cnc
 FILE TYPE:CNC6      UNIT 9209   STATUS:OLD                 
 FORMAT:FORMATTED              ACCESS:SEQUENTIAL          
 ACTION:READ                


 OPENED Charge.nam
 FILE TYPE:GWT6      UNIT 9210   STATUS:OLD                 
 FORMAT:FORMATTED              ACCESS:SEQUENTIAL          
 ACTION:READ                

 # File generated by Flopy version 3.5.0.dev0 on 05/31/2024 at 15:05:31.

 OPENED Charge.dis
 FILE TYPE:DIS6      UNIT 9211   STATUS:OLD                 
 FORMAT:FORMATTED              ACCESS:SEQUENTIAL          
 ACTION:READ                

 # File generated by Flopy version 3.5.0.dev0 on 05/31/2024 at 15:05:31.

 OPENED Charge.ic
 FILE TYPE:IC6       UNIT 9235   STATUS:OLD                 
 FORMAT:FORMATTED              ACCESS:SEQUENTIAL          
 ACTION:READ                


 OPENED Charge.mst
 FILE TYPE:MST6      UNIT 9236   STATUS:OLD                 
 FORMAT:FORMATTED              ACCESS:SEQUENTIAL          
 ACTION:READ                


 OPENED Charge.adv
 FILE TYPE:ADV6      UNIT 9237   STATUS:OLD                 
 FORMAT:FORMATTED              ACCESS:SEQUENTIAL          
 ACTION:READ                


 OPENED Charge.dsp
 FILE TYPE:DSP6      UNIT 9238   STATUS:OLD                 
 FORMAT:FORMATTED              ACCESS:SEQUENTIAL          
 ACTION:READ                

 # File generated by Flopy version 3.5.0.dev0 on 05/31/2024 at 15:05:31.

 OPENED Charge.ssm
 FILE TYPE:SSM6      UNIT 9269   STATUS:OLD                 
 FORMAT:FORMATTED              ACCESS:SEQUENTIAL          
 ACTION:READ                


 OPENED Charge.oc
 FILE TYPE:OC6       UNIT 9270   STATUS:OLD                 
 FORMAT:FORMATTED              ACCESS:SEQUENTIAL          
 ACTION:READ                


 OPENED Charge.cnc
 FILE TYPE:CNC6      UNIT 9271   STATUS:OLD                 
 FORMAT:FORMATTED              ACCESS:SEQUENTIAL          
 ACTION:READ                


 OPENED Al.nam
 FILE TYPE:GWT6      UNIT 9272   STATUS:OLD                 
 FORMAT:FORMATTED              ACCESS:SEQUENTIAL          
 ACTION:READ                

 # File generated by Flopy version 3.5.0.dev0 on 05/31/2024 at 15:05:31.

 OPENED Al.dis
 FILE TYPE:DIS6      UNIT 9273   STATUS:OLD                 
 FORMAT:FORMATTED              ACCESS:SEQUENTIAL          
 ACTION:READ                

 # File generated by Flopy version 3.5.0.dev0 on 05/31/2024 at 15:05:31.

 OPENED Al.ic
 FILE TYPE:IC6       UNIT 9297   STATUS:OLD                 
 FORMAT:FORMATTED              ACCESS:SEQUENTIAL          
 ACTION:READ                


 OPENED Al.mst
 FILE TYPE:MST6      UNIT 9298   STATUS:OLD                 
 FORMAT:FORMATTED              ACCESS:SEQUENTIAL          
 ACTION:READ                


 OPENED Al.adv
 FILE TYPE:ADV6      UNIT 9299   STATUS:OLD                 
 FORMAT:FORMATTED              ACCESS:SEQUENTIAL          
 ACTION:READ                


 OPENED Al.dsp
 FILE TYPE:DSP6      UNIT 9300   STATUS:OLD                 
 FORMAT:FORMATTED              ACCESS:SEQUENTIAL          
 ACTION:READ                

 # File generated by Flopy version 3.5.0.dev0 on 05/31/2024 at 15:05:31.

 OPENED Al.ssm
 FILE TYPE:SSM6      UNIT 9331   STATUS:OLD                 
 FORMAT:FORMATTED              ACCESS:SEQUENTIAL          
 ACTION:READ                


 OPENED Al.oc
 FILE TYPE:OC6       UNIT 9332   STATUS:OLD                 
 FORMAT:FORMATTED              ACCESS:SEQUENTIAL          
 ACTION:READ                


 OPENED Al.cnc
 FILE TYPE:CNC6      UNIT 9333   STATUS:OLD                 
 FORMAT:FORMATTED              ACCESS:SEQUENTIAL          
 ACTION:READ                


 OPENED C.nam
 FILE TYPE:GWT6      UNIT 9334   STATUS:OLD                 
 FORMAT:FORMATTED              ACCESS:SEQUENTIAL          
 ACTION:READ                

 # File generated by Flopy version 3.5.0.dev0 on 05/31/2024 at 15:05:31.

 OPENED C.dis
 FILE TYPE:DIS6      UNIT 9335   STATUS:OLD                 
 FORMAT:FORMATTED              ACCESS:SEQUENTIAL          
 ACTION:READ                

 # File generated by Flopy version 3.5.0.dev0 on 05/31/2024 at 15:05:31.

 OPENED C.ic
 FILE TYPE:IC6       UNIT 9359   STATUS:OLD                 
 FORMAT:FORMATTED              ACCESS:SEQUENTIAL          
 ACTION:READ                


 OPENED C.mst
 FILE TYPE:MST6      UNIT 9360   STATUS:OLD                 
 FORMAT:FORMATTED              ACCESS:SEQUENTIAL          
 ACTION:READ                


 OPENED C.adv
 FILE TYPE:ADV6      UNIT 9361   STATUS:OLD                 
 FORMAT:FORMATTED              ACCESS:SEQUENTIAL          
 ACTION:READ                


 OPENED C.dsp
 FILE TYPE:DSP6      UNIT 9362   STATUS:OLD                 
 FORMAT:FORMATTED              ACCESS:SEQUENTIAL          
 ACTION:READ                

 # File generated by Flopy version 3.5.0.dev0 on 05/31/2024 at 15:05:31.

 OPENED C.ssm
 FILE TYPE:SSM6      UNIT 9393   STATUS:OLD                 
 FORMAT:FORMATTED              ACCESS:SEQUENTIAL          
 ACTION:READ                


 OPENED C.oc
 FILE TYPE:OC6       UNIT 9394   STATUS:OLD                 
 FORMAT:FORMATTED              ACCESS:SEQUENTIAL          
 ACTION:READ                


 OPENED C.cnc
 FILE TYPE:CNC6      UNIT 9395   STATUS:OLD                 
 FORMAT:FORMATTED              ACCESS:SEQUENTIAL          
 ACTION:READ                


 OPENED Ca.nam
 FILE TYPE:GWT6      UNIT 9396   STATUS:OLD                 
 FORMAT:FORMATTED              ACCESS:SEQUENTIAL          
 ACTION:READ                

 # File generated by Flopy version 3.5.0.dev0 on 05/31/2024 at 15:05:31.

 OPENED Ca.dis
 FILE TYPE:DIS6      UNIT 9397   STATUS:OLD                 
 FORMAT:FORMATTED              ACCESS:SEQUENTIAL          
 ACTION:READ                

 # File generated by Flopy version 3.5.0.dev0 on 05/31/2024 at 15:05:31.

 OPENED Ca.ic
 FILE TYPE:IC6       UNIT 9421   STATUS:OLD                 
 FORMAT:FORMATTED              ACCESS:SEQUENTIAL          
 ACTION:READ                


 OPENED Ca.mst
 FILE TYPE:MST6      UNIT 9422   STATUS:OLD                 
 FORMAT:FORMATTED              ACCESS:SEQUENTIAL          
 ACTION:READ                


 OPENED Ca.adv
 FILE TYPE:ADV6      UNIT 9423   STATUS:OLD                 
 FORMAT:FORMATTED              ACCESS:SEQUENTIAL          
 ACTION:READ                


 OPENED Ca.dsp
 FILE TYPE:DSP6      UNIT 9424   STATUS:OLD                 
 FORMAT:FORMATTED              ACCESS:SEQUENTIAL          
 ACTION:READ                

 # File generated by Flopy version 3.5.0.dev0 on 05/31/2024 at 15:05:31.

 OPENED Ca.ssm
 FILE TYPE:SSM6      UNIT 9455   STATUS:OLD                 
 FORMAT:FORMATTED              ACCESS:SEQUENTIAL          
 ACTION:READ                


 OPENED Ca.oc
 FILE TYPE:OC6       UNIT 9456   STATUS:OLD                 
 FORMAT:FORMATTED              ACCESS:SEQUENTIAL          
 ACTION:READ                


 OPENED Ca.cnc
 FILE TYPE:CNC6      UNIT 9457   STATUS:OLD                 
 FORMAT:FORMATTED              ACCESS:SEQUENTIAL          
 ACTION:READ                


 OPENED Cl.nam
 FILE TYPE:GWT6      UNIT 9458   STATUS:OLD                 
 FORMAT:FORMATTED              ACCESS:SEQUENTIAL          
 ACTION:READ                

 # File generated by Flopy version 3.5.0.dev0 on 05/31/2024 at 15:05:31.

 OPENED Cl.dis
 FILE TYPE:DIS6      UNIT 9459   STATUS:OLD                 
 FORMAT:FORMATTED              ACCESS:SEQUENTIAL          
 ACTION:READ                

 # File generated by Flopy version 3.5.0.dev0 on 05/31/2024 at 15:05:31.

 OPENED Cl.ic
 FILE TYPE:IC6       UNIT 9483   STATUS:OLD                 
 FORMAT:FORMATTED              ACCESS:SEQUENTIAL          
 ACTION:READ                


 OPENED Cl.mst
 FILE TYPE:MST6      UNIT 9484   STATUS:OLD                 
 FORMAT:FORMATTED              ACCESS:SEQUENTIAL          
 ACTION:READ                


 OPENED Cl.adv
 FILE TYPE:ADV6      UNIT 9485   STATUS:OLD                 
 FORMAT:FORMATTED              ACCESS:SEQUENTIAL          
 ACTION:READ                


 OPENED Cl.dsp
 FILE TYPE:DSP6      UNIT 9486   STATUS:OLD                 
 FORMAT:FORMATTED              ACCESS:SEQUENTIAL          
 ACTION:READ                

 # File generated by Flopy version 3.5.0.dev0 on 05/31/2024 at 15:05:31.

 OPENED Cl.ssm
 FILE TYPE:SSM6      UNIT 9517   STATUS:OLD                 
 FORMAT:FORMATTED              ACCESS:SEQUENTIAL          
 ACTION:READ                


 OPENED Cl.oc
 FILE TYPE:OC6       UNIT 9518   STATUS:OLD                 
 FORMAT:FORMATTED              ACCESS:SEQUENTIAL          
 ACTION:READ                


 OPENED Cl.cnc
 FILE TYPE:CNC6      UNIT 9519   STATUS:OLD                 
 FORMAT:FORMATTED              ACCESS:SEQUENTIAL          
 ACTION:READ                


 OPENED Fe.nam
 FILE TYPE:GWT6      UNIT 9520   STATUS:OLD                 
 FORMAT:FORMATTED              ACCESS:SEQUENTIAL          
 ACTION:READ                

 # File generated by Flopy version 3.5.0.dev0 on 05/31/2024 at 15:05:31.

 OPENED Fe.dis
 FILE TYPE:DIS6      UNIT 9521   STATUS:OLD                 
 FORMAT:FORMATTED              ACCESS:SEQUENTIAL          
 ACTION:READ                

 # File generated by Flopy version 3.5.0.dev0 on 05/31/2024 at 15:05:31.

 OPENED Fe.ic
 FILE TYPE:IC6       UNIT 9545   STATUS:OLD                 
 FORMAT:FORMATTED              ACCESS:SEQUENTIAL          
 ACTION:READ                


 OPENED Fe.mst
 FILE TYPE:MST6      UNIT 9546   STATUS:OLD                 
 FORMAT:FORMATTED              ACCESS:SEQUENTIAL          
 ACTION:READ                


 OPENED Fe.adv
 FILE TYPE:ADV6      UNIT 9547   STATUS:OLD                 
 FORMAT:FORMATTED              ACCESS:SEQUENTIAL          
 ACTION:READ                


 OPENED Fe.dsp
 FILE TYPE:DSP6      UNIT 9548   STATUS:OLD                 
 FORMAT:FORMATTED              ACCESS:SEQUENTIAL          
 ACTION:READ                

 # File generated by Flopy version 3.5.0.dev0 on 05/31/2024 at 15:05:31.

 OPENED Fe.ssm
 FILE TYPE:SSM6      UNIT 9579   STATUS:OLD                 
 FORMAT:FORMATTED              ACCESS:SEQUENTIAL          
 ACTION:READ                


 OPENED Fe.oc
 FILE TYPE:OC6       UNIT 9580   STATUS:OLD                 
 FORMAT:FORMATTED              ACCESS:SEQUENTIAL          
 ACTION:READ                


 OPENED Fe.cnc
 FILE TYPE:CNC6      UNIT 9581   STATUS:OLD                 
 FORMAT:FORMATTED              ACCESS:SEQUENTIAL          
 ACTION:READ                


 OPENED K.nam
 FILE TYPE:GWT6      UNIT 9582   STATUS:OLD                 
 FORMAT:FORMATTED              ACCESS:SEQUENTIAL          
 ACTION:READ                

 # File generated by Flopy version 3.5.0.dev0 on 05/31/2024 at 15:05:31.

 OPENED K.dis
 FILE TYPE:DIS6      UNIT 9583   STATUS:OLD                 
 FORMAT:FORMATTED              ACCESS:SEQUENTIAL          
 ACTION:READ                

 # File generated by Flopy version 3.5.0.dev0 on 05/31/2024 at 15:05:31.

 OPENED K.ic
 FILE TYPE:IC6       UNIT 9607   STATUS:OLD                 
 FORMAT:FORMATTED              ACCESS:SEQUENTIAL          
 ACTION:READ                


 OPENED K.mst
 FILE TYPE:MST6      UNIT 9608   STATUS:OLD                 
 FORMAT:FORMATTED              ACCESS:SEQUENTIAL          
 ACTION:READ                


 OPENED K.adv
 FILE TYPE:ADV6      UNIT 9609   STATUS:OLD                 
 FORMAT:FORMATTED              ACCESS:SEQUENTIAL          
 ACTION:READ                


 OPENED K.dsp
 FILE TYPE:DSP6      UNIT 9610   STATUS:OLD                 
 FORMAT:FORMATTED              ACCESS:SEQUENTIAL          
 ACTION:READ                

 # File generated by Flopy version 3.5.0.dev0 on 05/31/2024 at 15:05:31.

 OPENED K.ssm
 FILE TYPE:SSM6      UNIT 9641   STATUS:OLD                 
 FORMAT:FORMATTED              ACCESS:SEQUENTIAL          
 ACTION:READ                


 OPENED K.oc
 FILE TYPE:OC6       UNIT 9642   STATUS:OLD                 
 FORMAT:FORMATTED              ACCESS:SEQUENTIAL          
 ACTION:READ                


 OPENED K.cnc
 FILE TYPE:CNC6      UNIT 9643   STATUS:OLD                 
 FORMAT:FORMATTED              ACCESS:SEQUENTIAL          
 ACTION:READ                


 OPENED Mg.nam
 FILE TYPE:GWT6      UNIT 9644   STATUS:OLD                 
 FORMAT:FORMATTED              ACCESS:SEQUENTIAL          
 ACTION:READ                

 # File generated by Flopy version 3.5.0.dev0 on 05/31/2024 at 15:05:31.

 OPENED Mg.dis
 FILE TYPE:DIS6      UNIT 9645   STATUS:OLD                 
 FORMAT:FORMATTED              ACCESS:SEQUENTIAL          
 ACTION:READ                

 # File generated by Flopy version 3.5.0.dev0 on 05/31/2024 at 15:05:31.

 OPENED Mg.ic
 FILE TYPE:IC6       UNIT 9669   STATUS:OLD                 
 FORMAT:FORMATTED              ACCESS:SEQUENTIAL          
 ACTION:READ                


 OPENED Mg.mst
 FILE TYPE:MST6      UNIT 9670   STATUS:OLD                 
 FORMAT:FORMATTED              ACCESS:SEQUENTIAL          
 ACTION:READ                


 OPENED Mg.adv
 FILE TYPE:ADV6      UNIT 9671   STATUS:OLD                 
 FORMAT:FORMATTED              ACCESS:SEQUENTIAL          
 ACTION:READ                


 OPENED Mg.dsp
 FILE TYPE:DSP6      UNIT 9672   STATUS:OLD                 
 FORMAT:FORMATTED              ACCESS:SEQUENTIAL          
 ACTION:READ                

 # File generated by Flopy version 3.5.0.dev0 on 05/31/2024 at 15:05:31.

 OPENED Mg.ssm
 FILE TYPE:SSM6      UNIT 9703   STATUS:OLD                 
 FORMAT:FORMATTED              ACCESS:SEQUENTIAL          
 ACTION:READ                


 OPENED Mg.oc
 FILE TYPE:OC6       UNIT 9704   STATUS:OLD                 
 FORMAT:FORMATTED              ACCESS:SEQUENTIAL          
 ACTION:READ                


 OPENED Mg.cnc
 FILE TYPE:CNC6      UNIT 9705   STATUS:OLD                 
 FORMAT:FORMATTED              ACCESS:SEQUENTIAL          
 ACTION:READ                


 OPENED Mn.nam
 FILE TYPE:GWT6      UNIT 9706   STATUS:OLD                 
 FORMAT:FORMATTED              ACCESS:SEQUENTIAL          
 ACTION:READ                

 # File generated by Flopy version 3.5.0.dev0 on 05/31/2024 at 15:05:31.

 OPENED Mn.dis
 FILE TYPE:DIS6      UNIT 9707   STATUS:OLD                 
 FORMAT:FORMATTED              ACCESS:SEQUENTIAL          
 ACTION:READ                

 # File generated by Flopy version 3.5.0.dev0 on 05/31/2024 at 15:05:31.

 OPENED Mn.ic
 FILE TYPE:IC6       UNIT 9731   STATUS:OLD                 
 FORMAT:FORMATTED              ACCESS:SEQUENTIAL          
 ACTION:READ                


 OPENED Mn.mst
 FILE TYPE:MST6      UNIT 9732   STATUS:OLD                 
 FORMAT:FORMATTED              ACCESS:SEQUENTIAL          
 ACTION:READ                


 OPENED Mn.adv
 FILE TYPE:ADV6      UNIT 9733   STATUS:OLD                 
 FORMAT:FORMATTED              ACCESS:SEQUENTIAL          
 ACTION:READ                


 OPENED Mn.dsp
 FILE TYPE:DSP6      UNIT 9734   STATUS:OLD                 
 FORMAT:FORMATTED              ACCESS:SEQUENTIAL          
 ACTION:READ                

 # File generated by Flopy version 3.5.0.dev0 on 05/31/2024 at 15:05:31.

 OPENED Mn.ssm
 FILE TYPE:SSM6      UNIT 9765   STATUS:OLD                 
 FORMAT:FORMATTED              ACCESS:SEQUENTIAL          
 ACTION:READ                


 OPENED Mn.oc
 FILE TYPE:OC6       UNIT 9766   STATUS:OLD                 
 FORMAT:FORMATTED              ACCESS:SEQUENTIAL          
 ACTION:READ                


 OPENED Mn.cnc
 FILE TYPE:CNC6      UNIT 9767   STATUS:OLD                 
 FORMAT:FORMATTED              ACCESS:SEQUENTIAL          
 ACTION:READ                


 OPENED Na.nam
 FILE TYPE:GWT6      UNIT 9768   STATUS:OLD                 
 FORMAT:FORMATTED              ACCESS:SEQUENTIAL          
 ACTION:READ                

 # File generated by Flopy version 3.5.0.dev0 on 05/31/2024 at 15:05:31.

 OPENED Na.dis
 FILE TYPE:DIS6      UNIT 9769   STATUS:OLD                 
 FORMAT:FORMATTED              ACCESS:SEQUENTIAL          
 ACTION:READ                

 # File generated by Flopy version 3.5.0.dev0 on 05/31/2024 at 15:05:31.

 OPENED Na.ic
 FILE TYPE:IC6       UNIT 9793   STATUS:OLD                 
 FORMAT:FORMATTED              ACCESS:SEQUENTIAL          
 ACTION:READ                


 OPENED Na.mst
 FILE TYPE:MST6      UNIT 9794   STATUS:OLD                 
 FORMAT:FORMATTED              ACCESS:SEQUENTIAL          
 ACTION:READ                


 OPENED Na.adv
 FILE TYPE:ADV6      UNIT 9795   STATUS:OLD                 
 FORMAT:FORMATTED              ACCESS:SEQUENTIAL          
 ACTION:READ                


 OPENED Na.dsp
 FILE TYPE:DSP6      UNIT 9796   STATUS:OLD                 
 FORMAT:FORMATTED              ACCESS:SEQUENTIAL          
 ACTION:READ                

 # File generated by Flopy version 3.5.0.dev0 on 05/31/2024 at 15:05:31.

 OPENED Na.ssm
 FILE TYPE:SSM6      UNIT 9827   STATUS:OLD                 
 FORMAT:FORMATTED              ACCESS:SEQUENTIAL          
 ACTION:READ                


 OPENED Na.oc
 FILE TYPE:OC6       UNIT 9828   STATUS:OLD                 
 FORMAT:FORMATTED              ACCESS:SEQUENTIAL          
 ACTION:READ                


 OPENED Na.cnc
 FILE TYPE:CNC6      UNIT 9829   STATUS:OLD                 
 FORMAT:FORMATTED              ACCESS:SEQUENTIAL          
 ACTION:READ                


 OPENED S.nam
 FILE TYPE:GWT6      UNIT 9830   STATUS:OLD                 
 FORMAT:FORMATTED              ACCESS:SEQUENTIAL          
 ACTION:READ                

 # File generated by Flopy version 3.5.0.dev0 on 05/31/2024 at 15:05:31.

 OPENED S.dis
 FILE TYPE:DIS6      UNIT 9831   STATUS:OLD                 
 FORMAT:FORMATTED              ACCESS:SEQUENTIAL          
 ACTION:READ                

 # File generated by Flopy version 3.5.0.dev0 on 05/31/2024 at 15:05:31.

 OPENED S.ic
 FILE TYPE:IC6       UNIT 9855   STATUS:OLD                 
 FORMAT:FORMATTED              ACCESS:SEQUENTIAL          
 ACTION:READ                


 OPENED S.mst
 FILE TYPE:MST6      UNIT 9856   STATUS:OLD                 
 FORMAT:FORMATTED              ACCESS:SEQUENTIAL          
 ACTION:READ                


 OPENED S.adv
 FILE TYPE:ADV6      UNIT 9857   STATUS:OLD                 
 FORMAT:FORMATTED              ACCESS:SEQUENTIAL          
 ACTION:READ                


 OPENED S.dsp
 FILE TYPE:DSP6      UNIT 9858   STATUS:OLD                 
 FORMAT:FORMATTED              ACCESS:SEQUENTIAL          
 ACTION:READ                

 # File generated by Flopy version 3.5.0.dev0 on 05/31/2024 at 15:05:31.

 OPENED S.ssm
 FILE TYPE:SSM6      UNIT 9889   STATUS:OLD                 
 FORMAT:FORMATTED              ACCESS:SEQUENTIAL          
 ACTION:READ                


 OPENED S.oc
 FILE TYPE:OC6       UNIT 9890   STATUS:OLD                 
 FORMAT:FORMATTED              ACCESS:SEQUENTIAL          
 ACTION:READ                


 OPENED S.cnc
 FILE TYPE:CNC6      UNIT 9891   STATUS:OLD                 
 FORMAT:FORMATTED              ACCESS:SEQUENTIAL          
 ACTION:READ                


 OPENED Si.nam
 FILE TYPE:GWT6      UNIT 9892   STATUS:OLD                 
 FORMAT:FORMATTED              ACCESS:SEQUENTIAL          
 ACTION:READ                

 # File generated by Flopy version 3.5.0.dev0 on 05/31/2024 at 15:05:31.

 OPENED Si.dis
 FILE TYPE:DIS6      UNIT 9893   STATUS:OLD                 
 FORMAT:FORMATTED              ACCESS:SEQUENTIAL          
 ACTION:READ                

 # File generated by Flopy version 3.5.0.dev0 on 05/31/2024 at 15:05:31.

 OPENED Si.ic
 FILE TYPE:IC6       UNIT 9917   STATUS:OLD                 
 FORMAT:FORMATTED              ACCESS:SEQUENTIAL          
 ACTION:READ                


 OPENED Si.mst
 FILE TYPE:MST6      UNIT 9918   STATUS:OLD                 
 FORMAT:FORMATTED              ACCESS:SEQUENTIAL          
 ACTION:READ                


 OPENED Si.adv
 FILE TYPE:ADV6      UNIT 9919   STATUS:OLD                 
 FORMAT:FORMATTED              ACCESS:SEQUENTIAL          
 ACTION:READ                


 OPENED Si.dsp
 FILE TYPE:DSP6      UNIT 9920   STATUS:OLD                 
 FORMAT:FORMATTED              ACCESS:SEQUENTIAL          
 ACTION:READ                

 # File generated by Flopy version 3.5.0.dev0 on 05/31/2024 at 15:05:31.

 OPENED Si.ssm
 FILE TYPE:SSM6      UNIT 9951   STATUS:OLD                 
 FORMAT:FORMATTED              ACCESS:SEQUENTIAL          
 ACTION:READ                


 OPENED Si.oc
 FILE TYPE:OC6       UNIT 9952   STATUS:OLD                 
 FORMAT:FORMATTED              ACCESS:SEQUENTIAL          
 ACTION:READ                


 OPENED Si.cnc
 FILE TYPE:CNC6      UNIT 9953   STATUS:OLD                 
 FORMAT:FORMATTED              ACCESS:SEQUENTIAL          
 ACTION:READ                


 READING SIMULATION OPTIONS
    MAXIMUM NUMBER OF ERRORS THAT WILL BE STORED IS 1000
 END OF SIMULATION OPTIONS

 READING SIMULATION TIMING

 OPENED walter1994.tdis
 FILE TYPE:TDIS   UNIT 9954   STATUS:OLD                 
 FORMAT:FORMATTED              ACCESS:SEQUENTIAL          
 ACTION:READ                


 TDIS -- TEMPORAL DISCRETIZATION PACKAGE,
 VERSION 1 : 11/13/2014 - INPUT READ FROM UNIT 9954
 # File generated by Flopy version 3.5.0.dev0 on 05/31/2024 at 15:05:31.
 PROCESSING TDIS OPTIONS
    SIMULATION TIME UNIT IS DAYS
 END OF TDIS OPTIONS
 PROCESSING TDIS DIMENSIONS
    1 STRESS PERIOD(S) IN SIMULATION
 END OF TDIS DIMENSIONS
 PROCESSING TDIS PERIODDATA


 STRESS PERIOD     LENGTH       TIME STEPS     MULTIPLIER FOR DELT
 ----------------------------------------------------------------------------
        1         2000.000        100                    1.000
 END OF TDIS PERIODDATA
 END OF SIMULATION TIMING

 READING SIMULATION MODELS
    GWF6 model 1 will be created
    GWT6 model 2 will be created
    GWT6 model 3 will be created
    GWT6 model 4 will be created
    GWT6 model 5 will be created
    GWT6 model 6 will be created
    GWT6 model 7 will be created
    GWT6 model 8 will be created
    GWT6 model 9 will be created
    GWT6 model 10 will be created
    GWT6 model 11 will be created
    GWT6 model 12 will be created
    GWT6 model 13 will be created
    GWT6 model 14 will be created
    GWT6 model 15 will be created
 END OF SIMULATION MODELS

 READING SIMULATION EXCHANGES
    GWF6-GWT6 exchange 1 will be created to connect model 1 with model 2
    GWF6-GWT6 exchange 2 will be created to connect model 1 with model 3
    GWF6-GWT6 exchange 3 will be created to connect model 1 with model 4
    GWF6-GWT6 exchange 4 will be created to connect model 1 with model 5
    GWF6-GWT6 exchange 5 will be created to connect model 1 with model 6
    GWF6-GWT6 exchange 6 will be created to connect model 1 with model 7
    GWF6-GWT6 exchange 7 will be created to connect model 1 with model 8
    GWF6-GWT6 exchange 8 will be created to connect model 1 with model 9
    GWF6-GWT6 exchange 9 will be created to connect model 1 with model 10
    GWF6-GWT6 exchange 10 will be created to connect model 1 with model 11
    GWF6-GWT6 exchange 11 will be created to connect model 1 with model 12
    GWF6-GWT6 exchange 12 will be created to connect model 1 with model 13
    GWF6-GWT6 exchange 13 will be created to connect model 1 with model 14
    GWF6-GWT6 exchange 14 will be created to connect model 1 with model 15
 END OF SIMULATION EXCHANGES

 READING SOLUTIONGROUP

 Creating solution: SLN_1           

 OPENED gwf.ims
 FILE TYPE:IMS   UNIT 9970   STATUS:OLD                 
 FORMAT:FORMATTED              ACCESS:SEQUENTIAL          
 ACTION:READ                


 Creating solution: SLN_2           

 OPENED H.ims
 FILE TYPE:IMS   UNIT 9971   STATUS:OLD                 
 FORMAT:FORMATTED              ACCESS:SEQUENTIAL          
 ACTION:READ                


 Creating solution: SLN_3           

 OPENED O.ims
 FILE TYPE:IMS   UNIT 9972   STATUS:OLD                 
 FORMAT:FORMATTED              ACCESS:SEQUENTIAL          
 ACTION:READ                


 Creating solution: SLN_4           

 OPENED Charge.ims
 FILE TYPE:IMS   UNIT 9973   STATUS:OLD                 
 FORMAT:FORMATTED              ACCESS:SEQUENTIAL          
 ACTION:READ                


 Creating solution: SLN_5           

 OPENED Al.ims
 FILE TYPE:IMS   UNIT 9974   STATUS:OLD                 
 FORMAT:FORMATTED              ACCESS:SEQUENTIAL          
 ACTION:READ                


 Creating solution: SLN_6           

 OPENED C.ims
 FILE TYPE:IMS   UNIT 9975   STATUS:OLD                 
 FORMAT:FORMATTED              ACCESS:SEQUENTIAL          
 ACTION:READ                


 Creating solution: SLN_7           

 OPENED Ca.ims
 FILE TYPE:IMS   UNIT 9976   STATUS:OLD                 
 FORMAT:FORMATTED              ACCESS:SEQUENTIAL          
 ACTION:READ                


 Creating solution: SLN_8           

 OPENED Cl.ims
 FILE TYPE:IMS   UNIT 9977   STATUS:OLD                 
 FORMAT:FORMATTED              ACCESS:SEQUENTIAL          
 ACTION:READ                


 Creating solution: SLN_9           

 OPENED Fe.ims
 FILE TYPE:IMS   UNIT 9978   STATUS:OLD                 
 FORMAT:FORMATTED              ACCESS:SEQUENTIAL          
 ACTION:READ                


 Creating solution: SLN_10          

 OPENED K.ims
 FILE TYPE:IMS   UNIT 9979   STATUS:OLD                 
 FORMAT:FORMATTED              ACCESS:SEQUENTIAL          
 ACTION:READ                


 Creating solution: SLN_11          

 OPENED Mg.ims
 FILE TYPE:IMS   UNIT 9980   STATUS:OLD                 
 FORMAT:FORMATTED              ACCESS:SEQUENTIAL          
 ACTION:READ                


 Creating solution: SLN_12          

 OPENED Mn.ims
 FILE TYPE:IMS   UNIT 9981   STATUS:OLD                 
 FORMAT:FORMATTED              ACCESS:SEQUENTIAL          
 ACTION:READ                


 Creating solution: SLN_13          

 OPENED Na.ims
 FILE TYPE:IMS   UNIT 9982   STATUS:OLD                 
 FORMAT:FORMATTED              ACCESS:SEQUENTIAL          
 ACTION:READ                


 Creating solution: SLN_14          

 OPENED S.ims
 FILE TYPE:IMS   UNIT 9983   STATUS:OLD                 
 FORMAT:FORMATTED              ACCESS:SEQUENTIAL          
 ACTION:READ                


 Creating solution: SLN_15          

 OPENED Si.ims
 FILE TYPE:IMS   UNIT 9984   STATUS:OLD                 
 FORMAT:FORMATTED              ACCESS:SEQUENTIAL          
 ACTION:READ                

 END OF SOLUTIONGROUP

PROCESSING MODEL CONNECTIONS
END OF MODEL CONNECTIONS

 OPENED gwf.chd_stress_period_data_1.txt
 FILE TYPE:OPEN/CLOSE   UNIT 9985   STATUS:OLD                 
 FORMAT:FORMATTED              ACCESS:SEQUENTIAL          
 ACTION:READ                


 OPENED gwf.chdtail_stress_period_data_1.txt
 FILE TYPE:OPEN/CLOSE   UNIT 9986   STATUS:OLD                 
 FORMAT:FORMATTED              ACCESS:SEQUENTIAL          
 ACTION:READ                


 IMS -- ITERATIVE MODEL SOLUTION PACKAGE, VERSION 6, 4/28/2017
         INPUT READ FROM UNIT 9970
 # File generated by Flopy version 3.5.0.dev0 on 05/31/2024 at 15:05:31.

 PROCESSING IMS OPTIONS
 COMPLEX OPTION:
 DEFAULT SOLVER INPUT VALUES REFLECT STRONGLY NONLINEAR MODEL
 END OF IMS OPTIONS

 PROCESSING IMS NONLINEAR
 END OF IMS NONLINEAR DATA
 ***UNDER-RELAXATION WILL NOT BE USED***
 

 PROCESSING LINEAR DATA
 END OF LINEAR DATA
 ***IMS LINEAR SOLVER WILL BE USED***

 IMSLINEAR -- UNSTRUCTURED LINEAR SOLUTION PACKAGE, VERSION 8, 04/28/2017
 A symmetric matrix will be solved

 OUTER ITERATION CONVERGENCE CRITERION    (DVCLOSE) =    0.100000E-05
 MAXIMUM NUMBER OF OUTER ITERATIONS        (MXITER) = 300
 SOLVER PRINTOUT INDEX                     (IPRIMS) = 1
 NONLINEAR ITERATION METHOD            (NONLINMETH) = 0
 LINEAR SOLUTION METHOD                   (LINMETH) = 1
 MAXIMUM NUMBER OF BACKTRACKS            (NUMTRACK) = 20
 BACKTRACKING TOLERANCE FACTOR               (BTOL) =    0.105000E+01
 BACKTRACKING REDUCTION FACTOR             (BREDUC) =    0.100000E+00
 BACKTRACKING RESIDUAL LIMIT              (RES_LIM) =    0.200000E-02

       SOLUTION BY THE        CONJUGATE-GRADIENT       METHOD
 ------------------------------------------------------------------
 MAXIMUM OF 300 CALLS OF SOLUTION ROUTINE
 MAXIMUM OF 600 INTERNAL ITERATIONS PER CALL TO SOLUTION ROUTINE
 LINEAR ACCELERATION METHOD            = CG        
 MATRIX PRECONDITIONING TYPE           = MOD. INCOMPLETE LUT 
 MATRIX SCALING APPROACH               = NO SCALING          
 MATRIX REORDERING APPROACH            = ORIGINAL ORDERING        
 NUMBER OF ORTHOGONALIZATIONS          = 2
 HEAD CHANGE CRITERION FOR CLOSURE     =    0.10000E-05
 RESIDUAL CHANGE CRITERION FOR CLOSURE =    0.10000E-05
 RESIDUAL CONVERGENCE OPTION           = 0
 RESIDUAL CONVERGENCE NORM             = INFINITY NORM   
 RELAXATION FACTOR                     =    0.10000E+01
 NUMBER OF LEVELS                      =              5
 DROP TOLERANCE                        =    0.10000E-03



 IMS -- ITERATIVE MODEL SOLUTION PACKAGE, VERSION 6, 4/28/2017
         INPUT READ FROM UNIT 9971
 # File generated by Flopy version 3.5.0.dev0 on 05/31/2024 at 15:05:31.

 PROCESSING IMS OPTIONS
 END OF IMS OPTIONS

 PROCESSING IMS NONLINEAR
 END OF IMS NONLINEAR DATA
 ***UNDER-RELAXATION WILL NOT BE USED***
 

 PROCESSING LINEAR DATA
 END OF LINEAR DATA
 ***IMS LINEAR SOLVER WILL BE USED***

 IMSLINEAR -- UNSTRUCTURED LINEAR SOLUTION PACKAGE, VERSION 8, 04/28/2017
 An asymmetric matrix will be solved

 OUTER ITERATION CONVERGENCE CRITERION    (DVCLOSE) =    0.100000E-05
 MAXIMUM NUMBER OF OUTER ITERATIONS        (MXITER) = 300
 SOLVER PRINTOUT INDEX                     (IPRIMS) = 1
 NONLINEAR ITERATION METHOD            (NONLINMETH) = 0
 LINEAR SOLUTION METHOD                   (LINMETH) = 1

       SOLUTION BY THE BICONJUGATE-GRADIENT STABILIZED METHOD
 ------------------------------------------------------------------
 MAXIMUM OF 300 CALLS OF SOLUTION ROUTINE
 MAXIMUM OF 600 INTERNAL ITERATIONS PER CALL TO SOLUTION ROUTINE
 LINEAR ACCELERATION METHOD            = BCGS      
 MATRIX PRECONDITIONING TYPE           = MOD. INCOMPLETE LU  
 MATRIX SCALING APPROACH               = NO SCALING          
 MATRIX REORDERING APPROACH            = ORIGINAL ORDERING        
 NUMBER OF ORTHOGONALIZATIONS          = 0
 HEAD CHANGE CRITERION FOR CLOSURE     =    0.10000E-05
 RESIDUAL CHANGE CRITERION FOR CLOSURE =    0.10000E-05
 RESIDUAL CONVERGENCE OPTION           = 0
 RESIDUAL CONVERGENCE NORM             = INFINITY NORM   
 RELAXATION FACTOR                     =    0.10000E+01




 IMS -- ITERATIVE MODEL SOLUTION PACKAGE, VERSION 6, 4/28/2017
         INPUT READ FROM UNIT 9972
 # File generated by Flopy version 3.5.0.dev0 on 05/31/2024 at 15:05:31.

 PROCESSING IMS OPTIONS
 END OF IMS OPTIONS

 PROCESSING IMS NONLINEAR
 END OF IMS NONLINEAR DATA
 ***UNDER-RELAXATION WILL NOT BE USED***
 

 PROCESSING LINEAR DATA
 END OF LINEAR DATA
 ***IMS LINEAR SOLVER WILL BE USED***

 IMSLINEAR -- UNSTRUCTURED LINEAR SOLUTION PACKAGE, VERSION 8, 04/28/2017
 An asymmetric matrix will be solved

 OUTER ITERATION CONVERGENCE CRITERION    (DVCLOSE) =    0.100000E-05
 MAXIMUM NUMBER OF OUTER ITERATIONS        (MXITER) = 300
 SOLVER PRINTOUT INDEX                     (IPRIMS) = 1
 NONLINEAR ITERATION METHOD            (NONLINMETH) = 0
 LINEAR SOLUTION METHOD                   (LINMETH) = 1

       SOLUTION BY THE BICONJUGATE-GRADIENT STABILIZED METHOD
 ------------------------------------------------------------------
 MAXIMUM OF 300 CALLS OF SOLUTION ROUTINE
 MAXIMUM OF 600 INTERNAL ITERATIONS PER CALL TO SOLUTION ROUTINE
 LINEAR ACCELERATION METHOD            = BCGS      
 MATRIX PRECONDITIONING TYPE           = MOD. INCOMPLETE LU  
 MATRIX SCALING APPROACH               = NO SCALING          
 MATRIX REORDERING APPROACH            = ORIGINAL ORDERING        
 NUMBER OF ORTHOGONALIZATIONS          = 0
 HEAD CHANGE CRITERION FOR CLOSURE     =    0.10000E-05
 RESIDUAL CHANGE CRITERION FOR CLOSURE =    0.10000E-05
 RESIDUAL CONVERGENCE OPTION           = 0
 RESIDUAL CONVERGENCE NORM             = INFINITY NORM   
 RELAXATION FACTOR                     =    0.10000E+01




 IMS -- ITERATIVE MODEL SOLUTION PACKAGE, VERSION 6, 4/28/2017
         INPUT READ FROM UNIT 9973
 # File generated by Flopy version 3.5.0.dev0 on 05/31/2024 at 15:05:31.

 PROCESSING IMS OPTIONS
 END OF IMS OPTIONS

 PROCESSING IMS NONLINEAR
 END OF IMS NONLINEAR DATA
 ***UNDER-RELAXATION WILL NOT BE USED***
 

 PROCESSING LINEAR DATA
 END OF LINEAR DATA
 ***IMS LINEAR SOLVER WILL BE USED***

 IMSLINEAR -- UNSTRUCTURED LINEAR SOLUTION PACKAGE, VERSION 8, 04/28/2017
 An asymmetric matrix will be solved

 OUTER ITERATION CONVERGENCE CRITERION    (DVCLOSE) =    0.100000E-05
 MAXIMUM NUMBER OF OUTER ITERATIONS        (MXITER) = 300
 SOLVER PRINTOUT INDEX                     (IPRIMS) = 1
 NONLINEAR ITERATION METHOD            (NONLINMETH) = 0
 LINEAR SOLUTION METHOD                   (LINMETH) = 1

       SOLUTION BY THE BICONJUGATE-GRADIENT STABILIZED METHOD
 ------------------------------------------------------------------
 MAXIMUM OF 300 CALLS OF SOLUTION ROUTINE
 MAXIMUM OF 600 INTERNAL ITERATIONS PER CALL TO SOLUTION ROUTINE
 LINEAR ACCELERATION METHOD            = BCGS      
 MATRIX PRECONDITIONING TYPE           = MOD. INCOMPLETE LU  
 MATRIX SCALING APPROACH               = NO SCALING          
 MATRIX REORDERING APPROACH            = ORIGINAL ORDERING        
 NUMBER OF ORTHOGONALIZATIONS          = 0
 HEAD CHANGE CRITERION FOR CLOSURE     =    0.10000E-05
 RESIDUAL CHANGE CRITERION FOR CLOSURE =    0.10000E-05
 RESIDUAL CONVERGENCE OPTION           = 0
 RESIDUAL CONVERGENCE NORM             = INFINITY NORM   
 RELAXATION FACTOR                     =    0.10000E+01




 IMS -- ITERATIVE MODEL SOLUTION PACKAGE, VERSION 6, 4/28/2017
         INPUT READ FROM UNIT 9974
 # File generated by Flopy version 3.5.0.dev0 on 05/31/2024 at 15:05:31.

 PROCESSING IMS OPTIONS
 END OF IMS OPTIONS

 PROCESSING IMS NONLINEAR
 END OF IMS NONLINEAR DATA
 ***UNDER-RELAXATION WILL NOT BE USED***
 

 PROCESSING LINEAR DATA
 END OF LINEAR DATA
 ***IMS LINEAR SOLVER WILL BE USED***

 IMSLINEAR -- UNSTRUCTURED LINEAR SOLUTION PACKAGE, VERSION 8, 04/28/2017
 An asymmetric matrix will be solved

 OUTER ITERATION CONVERGENCE CRITERION    (DVCLOSE) =    0.100000E-05
 MAXIMUM NUMBER OF OUTER ITERATIONS        (MXITER) = 300
 SOLVER PRINTOUT INDEX                     (IPRIMS) = 1
 NONLINEAR ITERATION METHOD            (NONLINMETH) = 0
 LINEAR SOLUTION METHOD                   (LINMETH) = 1

       SOLUTION BY THE BICONJUGATE-GRADIENT STABILIZED METHOD
 ------------------------------------------------------------------
 MAXIMUM OF 300 CALLS OF SOLUTION ROUTINE
 MAXIMUM OF 600 INTERNAL ITERATIONS PER CALL TO SOLUTION ROUTINE
 LINEAR ACCELERATION METHOD            = BCGS      
 MATRIX PRECONDITIONING TYPE           = MOD. INCOMPLETE LU  
 MATRIX SCALING APPROACH               = NO SCALING          
 MATRIX REORDERING APPROACH            = ORIGINAL ORDERING        
 NUMBER OF ORTHOGONALIZATIONS          = 0
 HEAD CHANGE CRITERION FOR CLOSURE     =    0.10000E-05
 RESIDUAL CHANGE CRITERION FOR CLOSURE =    0.10000E-05
 RESIDUAL CONVERGENCE OPTION           = 0
 RESIDUAL CONVERGENCE NORM             = INFINITY NORM   
 RELAXATION FACTOR                     =    0.10000E+01




 IMS -- ITERATIVE MODEL SOLUTION PACKAGE, VERSION 6, 4/28/2017
         INPUT READ FROM UNIT 9975
 # File generated by Flopy version 3.5.0.dev0 on 05/31/2024 at 15:05:31.

 PROCESSING IMS OPTIONS
 END OF IMS OPTIONS

 PROCESSING IMS NONLINEAR
 END OF IMS NONLINEAR DATA
 ***UNDER-RELAXATION WILL NOT BE USED***
 

 PROCESSING LINEAR DATA
 END OF LINEAR DATA
 ***IMS LINEAR SOLVER WILL BE USED***

 IMSLINEAR -- UNSTRUCTURED LINEAR SOLUTION PACKAGE, VERSION 8, 04/28/2017
 An asymmetric matrix will be solved

 OUTER ITERATION CONVERGENCE CRITERION    (DVCLOSE) =    0.100000E-05
 MAXIMUM NUMBER OF OUTER ITERATIONS        (MXITER) = 300
 SOLVER PRINTOUT INDEX                     (IPRIMS) = 1
 NONLINEAR ITERATION METHOD            (NONLINMETH) = 0
 LINEAR SOLUTION METHOD                   (LINMETH) = 1

       SOLUTION BY THE BICONJUGATE-GRADIENT STABILIZED METHOD
 ------------------------------------------------------------------
 MAXIMUM OF 300 CALLS OF SOLUTION ROUTINE
 MAXIMUM OF 600 INTERNAL ITERATIONS PER CALL TO SOLUTION ROUTINE
 LINEAR ACCELERATION METHOD            = BCGS      
 MATRIX PRECONDITIONING TYPE           = MOD. INCOMPLETE LU  
 MATRIX SCALING APPROACH               = NO SCALING          
 MATRIX REORDERING APPROACH            = ORIGINAL ORDERING        
 NUMBER OF ORTHOGONALIZATIONS          = 0
 HEAD CHANGE CRITERION FOR CLOSURE     =    0.10000E-05
 RESIDUAL CHANGE CRITERION FOR CLOSURE =    0.10000E-05
 RESIDUAL CONVERGENCE OPTION           = 0
 RESIDUAL CONVERGENCE NORM             = INFINITY NORM   
 RELAXATION FACTOR                     =    0.10000E+01




 IMS -- ITERATIVE MODEL SOLUTION PACKAGE, VERSION 6, 4/28/2017
         INPUT READ FROM UNIT 9976
 # File generated by Flopy version 3.5.0.dev0 on 05/31/2024 at 15:05:31.

 PROCESSING IMS OPTIONS
 END OF IMS OPTIONS

 PROCESSING IMS NONLINEAR
 END OF IMS NONLINEAR DATA
 ***UNDER-RELAXATION WILL NOT BE USED***
 

 PROCESSING LINEAR DATA
 END OF LINEAR DATA
 ***IMS LINEAR SOLVER WILL BE USED***

 IMSLINEAR -- UNSTRUCTURED LINEAR SOLUTION PACKAGE, VERSION 8, 04/28/2017
 An asymmetric matrix will be solved

 OUTER ITERATION CONVERGENCE CRITERION    (DVCLOSE) =    0.100000E-05
 MAXIMUM NUMBER OF OUTER ITERATIONS        (MXITER) = 300
 SOLVER PRINTOUT INDEX                     (IPRIMS) = 1
 NONLINEAR ITERATION METHOD            (NONLINMETH) = 0
 LINEAR SOLUTION METHOD                   (LINMETH) = 1

       SOLUTION BY THE BICONJUGATE-GRADIENT STABILIZED METHOD
 ------------------------------------------------------------------
 MAXIMUM OF 300 CALLS OF SOLUTION ROUTINE
 MAXIMUM OF 600 INTERNAL ITERATIONS PER CALL TO SOLUTION ROUTINE
 LINEAR ACCELERATION METHOD            = BCGS      
 MATRIX PRECONDITIONING TYPE           = MOD. INCOMPLETE LU  
 MATRIX SCALING APPROACH               = NO SCALING          
 MATRIX REORDERING APPROACH            = ORIGINAL ORDERING        
 NUMBER OF ORTHOGONALIZATIONS          = 0
 HEAD CHANGE CRITERION FOR CLOSURE     =    0.10000E-05
 RESIDUAL CHANGE CRITERION FOR CLOSURE =    0.10000E-05
 RESIDUAL CONVERGENCE OPTION           = 0
 RESIDUAL CONVERGENCE NORM             = INFINITY NORM   
 RELAXATION FACTOR                     =    0.10000E+01




 IMS -- ITERATIVE MODEL SOLUTION PACKAGE, VERSION 6, 4/28/2017
         INPUT READ FROM UNIT 9977
 # File generated by Flopy version 3.5.0.dev0 on 05/31/2024 at 15:05:31.

 PROCESSING IMS OPTIONS
 END OF IMS OPTIONS

 PROCESSING IMS NONLINEAR
 END OF IMS NONLINEAR DATA
 ***UNDER-RELAXATION WILL NOT BE USED***
 

 PROCESSING LINEAR DATA
 END OF LINEAR DATA
 ***IMS LINEAR SOLVER WILL BE USED***

 IMSLINEAR -- UNSTRUCTURED LINEAR SOLUTION PACKAGE, VERSION 8, 04/28/2017
 An asymmetric matrix will be solved

 OUTER ITERATION CONVERGENCE CRITERION    (DVCLOSE) =    0.100000E-05
 MAXIMUM NUMBER OF OUTER ITERATIONS        (MXITER) = 300
 SOLVER PRINTOUT INDEX                     (IPRIMS) = 1
 NONLINEAR ITERATION METHOD            (NONLINMETH) = 0
 LINEAR SOLUTION METHOD                   (LINMETH) = 1

       SOLUTION BY THE BICONJUGATE-GRADIENT STABILIZED METHOD
 ------------------------------------------------------------------
 MAXIMUM OF 300 CALLS OF SOLUTION ROUTINE
 MAXIMUM OF 600 INTERNAL ITERATIONS PER CALL TO SOLUTION ROUTINE
 LINEAR ACCELERATION METHOD            = BCGS      
 MATRIX PRECONDITIONING TYPE           = MOD. INCOMPLETE LU  
 MATRIX SCALING APPROACH               = NO SCALING          
 MATRIX REORDERING APPROACH            = ORIGINAL ORDERING        
 NUMBER OF ORTHOGONALIZATIONS          = 0
 HEAD CHANGE CRITERION FOR CLOSURE     =    0.10000E-05
 RESIDUAL CHANGE CRITERION FOR CLOSURE =    0.10000E-05
 RESIDUAL CONVERGENCE OPTION           = 0
 RESIDUAL CONVERGENCE NORM             = INFINITY NORM   
 RELAXATION FACTOR                     =    0.10000E+01




 IMS -- ITERATIVE MODEL SOLUTION PACKAGE, VERSION 6, 4/28/2017
         INPUT READ FROM UNIT 9978
 # File generated by Flopy version 3.5.0.dev0 on 05/31/2024 at 15:05:31.

 PROCESSING IMS OPTIONS
 END OF IMS OPTIONS

 PROCESSING IMS NONLINEAR
 END OF IMS NONLINEAR DATA
 ***UNDER-RELAXATION WILL NOT BE USED***
 

 PROCESSING LINEAR DATA
 END OF LINEAR DATA
 ***IMS LINEAR SOLVER WILL BE USED***

 IMSLINEAR -- UNSTRUCTURED LINEAR SOLUTION PACKAGE, VERSION 8, 04/28/2017
 An asymmetric matrix will be solved

 OUTER ITERATION CONVERGENCE CRITERION    (DVCLOSE) =    0.100000E-05
 MAXIMUM NUMBER OF OUTER ITERATIONS        (MXITER) = 300
 SOLVER PRINTOUT INDEX                     (IPRIMS) = 1
 NONLINEAR ITERATION METHOD            (NONLINMETH) = 0
 LINEAR SOLUTION METHOD                   (LINMETH) = 1

       SOLUTION BY THE BICONJUGATE-GRADIENT STABILIZED METHOD
 ------------------------------------------------------------------
 MAXIMUM OF 300 CALLS OF SOLUTION ROUTINE
 MAXIMUM OF 600 INTERNAL ITERATIONS PER CALL TO SOLUTION ROUTINE
 LINEAR ACCELERATION METHOD            = BCGS      
 MATRIX PRECONDITIONING TYPE           = MOD. INCOMPLETE LU  
 MATRIX SCALING APPROACH               = NO SCALING          
 MATRIX REORDERING APPROACH            = ORIGINAL ORDERING        
 NUMBER OF ORTHOGONALIZATIONS          = 0
 HEAD CHANGE CRITERION FOR CLOSURE     =    0.10000E-05
 RESIDUAL CHANGE CRITERION FOR CLOSURE =    0.10000E-05
 RESIDUAL CONVERGENCE OPTION           = 0
 RESIDUAL CONVERGENCE NORM             = INFINITY NORM   
 RELAXATION FACTOR                     =    0.10000E+01




 IMS -- ITERATIVE MODEL SOLUTION PACKAGE, VERSION 6, 4/28/2017
         INPUT READ FROM UNIT 9979
 # File generated by Flopy version 3.5.0.dev0 on 05/31/2024 at 15:05:31.

 PROCESSING IMS OPTIONS
 END OF IMS OPTIONS

 PROCESSING IMS NONLINEAR
 END OF IMS NONLINEAR DATA
 ***UNDER-RELAXATION WILL NOT BE USED***
 

 PROCESSING LINEAR DATA
 END OF LINEAR DATA
 ***IMS LINEAR SOLVER WILL BE USED***

 IMSLINEAR -- UNSTRUCTURED LINEAR SOLUTION PACKAGE, VERSION 8, 04/28/2017
 An asymmetric matrix will be solved

 OUTER ITERATION CONVERGENCE CRITERION    (DVCLOSE) =    0.100000E-05
 MAXIMUM NUMBER OF OUTER ITERATIONS        (MXITER) = 300
 SOLVER PRINTOUT INDEX                     (IPRIMS) = 1
 NONLINEAR ITERATION METHOD            (NONLINMETH) = 0
 LINEAR SOLUTION METHOD                   (LINMETH) = 1

       SOLUTION BY THE BICONJUGATE-GRADIENT STABILIZED METHOD
 ------------------------------------------------------------------
 MAXIMUM OF 300 CALLS OF SOLUTION ROUTINE
 MAXIMUM OF 600 INTERNAL ITERATIONS PER CALL TO SOLUTION ROUTINE
 LINEAR ACCELERATION METHOD            = BCGS      
 MATRIX PRECONDITIONING TYPE           = MOD. INCOMPLETE LU  
 MATRIX SCALING APPROACH               = NO SCALING          
 MATRIX REORDERING APPROACH            = ORIGINAL ORDERING        
 NUMBER OF ORTHOGONALIZATIONS          = 0
 HEAD CHANGE CRITERION FOR CLOSURE     =    0.10000E-05
 RESIDUAL CHANGE CRITERION FOR CLOSURE =    0.10000E-05
 RESIDUAL CONVERGENCE OPTION           = 0
 RESIDUAL CONVERGENCE NORM             = INFINITY NORM   
 RELAXATION FACTOR                     =    0.10000E+01




 IMS -- ITERATIVE MODEL SOLUTION PACKAGE, VERSION 6, 4/28/2017
         INPUT READ FROM UNIT 9980
 # File generated by Flopy version 3.5.0.dev0 on 05/31/2024 at 15:05:31.

 PROCESSING IMS OPTIONS
 END OF IMS OPTIONS

 PROCESSING IMS NONLINEAR
 END OF IMS NONLINEAR DATA
 ***UNDER-RELAXATION WILL NOT BE USED***
 

 PROCESSING LINEAR DATA
 END OF LINEAR DATA
 ***IMS LINEAR SOLVER WILL BE USED***

 IMSLINEAR -- UNSTRUCTURED LINEAR SOLUTION PACKAGE, VERSION 8, 04/28/2017
 An asymmetric matrix will be solved

 OUTER ITERATION CONVERGENCE CRITERION    (DVCLOSE) =    0.100000E-05
 MAXIMUM NUMBER OF OUTER ITERATIONS        (MXITER) = 300
 SOLVER PRINTOUT INDEX                     (IPRIMS) = 1
 NONLINEAR ITERATION METHOD            (NONLINMETH) = 0
 LINEAR SOLUTION METHOD                   (LINMETH) = 1

       SOLUTION BY THE BICONJUGATE-GRADIENT STABILIZED METHOD
 ------------------------------------------------------------------
 MAXIMUM OF 300 CALLS OF SOLUTION ROUTINE
 MAXIMUM OF 600 INTERNAL ITERATIONS PER CALL TO SOLUTION ROUTINE
 LINEAR ACCELERATION METHOD            = BCGS      
 MATRIX PRECONDITIONING TYPE           = MOD. INCOMPLETE LU  
 MATRIX SCALING APPROACH               = NO SCALING          
 MATRIX REORDERING APPROACH            = ORIGINAL ORDERING        
 NUMBER OF ORTHOGONALIZATIONS          = 0
 HEAD CHANGE CRITERION FOR CLOSURE     =    0.10000E-05
 RESIDUAL CHANGE CRITERION FOR CLOSURE =    0.10000E-05
 RESIDUAL CONVERGENCE OPTION           = 0
 RESIDUAL CONVERGENCE NORM             = INFINITY NORM   
 RELAXATION FACTOR                     =    0.10000E+01




 IMS -- ITERATIVE MODEL SOLUTION PACKAGE, VERSION 6, 4/28/2017
         INPUT READ FROM UNIT 9981
 # File generated by Flopy version 3.5.0.dev0 on 05/31/2024 at 15:05:31.

 PROCESSING IMS OPTIONS
 END OF IMS OPTIONS

 PROCESSING IMS NONLINEAR
 END OF IMS NONLINEAR DATA
 ***UNDER-RELAXATION WILL NOT BE USED***
 

 PROCESSING LINEAR DATA
 END OF LINEAR DATA
 ***IMS LINEAR SOLVER WILL BE USED***

 IMSLINEAR -- UNSTRUCTURED LINEAR SOLUTION PACKAGE, VERSION 8, 04/28/2017
 An asymmetric matrix will be solved

 OUTER ITERATION CONVERGENCE CRITERION    (DVCLOSE) =    0.100000E-05
 MAXIMUM NUMBER OF OUTER ITERATIONS        (MXITER) = 300
 SOLVER PRINTOUT INDEX                     (IPRIMS) = 1
 NONLINEAR ITERATION METHOD            (NONLINMETH) = 0
 LINEAR SOLUTION METHOD                   (LINMETH) = 1

       SOLUTION BY THE BICONJUGATE-GRADIENT STABILIZED METHOD
 ------------------------------------------------------------------
 MAXIMUM OF 300 CALLS OF SOLUTION ROUTINE
 MAXIMUM OF 600 INTERNAL ITERATIONS PER CALL TO SOLUTION ROUTINE
 LINEAR ACCELERATION METHOD            = BCGS      
 MATRIX PRECONDITIONING TYPE           = MOD. INCOMPLETE LU  
 MATRIX SCALING APPROACH               = NO SCALING          
 MATRIX REORDERING APPROACH            = ORIGINAL ORDERING        
 NUMBER OF ORTHOGONALIZATIONS          = 0
 HEAD CHANGE CRITERION FOR CLOSURE     =    0.10000E-05
 RESIDUAL CHANGE CRITERION FOR CLOSURE =    0.10000E-05
 RESIDUAL CONVERGENCE OPTION           = 0
 RESIDUAL CONVERGENCE NORM             = INFINITY NORM   
 RELAXATION FACTOR                     =    0.10000E+01




 IMS -- ITERATIVE MODEL SOLUTION PACKAGE, VERSION 6, 4/28/2017
         INPUT READ FROM UNIT 9982
 # File generated by Flopy version 3.5.0.dev0 on 05/31/2024 at 15:05:31.

 PROCESSING IMS OPTIONS
 END OF IMS OPTIONS

 PROCESSING IMS NONLINEAR
 END OF IMS NONLINEAR DATA
 ***UNDER-RELAXATION WILL NOT BE USED***
 

 PROCESSING LINEAR DATA
 END OF LINEAR DATA
 ***IMS LINEAR SOLVER WILL BE USED***

 IMSLINEAR -- UNSTRUCTURED LINEAR SOLUTION PACKAGE, VERSION 8, 04/28/2017
 An asymmetric matrix will be solved

 OUTER ITERATION CONVERGENCE CRITERION    (DVCLOSE) =    0.100000E-05
 MAXIMUM NUMBER OF OUTER ITERATIONS        (MXITER) = 300
 SOLVER PRINTOUT INDEX                     (IPRIMS) = 1
 NONLINEAR ITERATION METHOD            (NONLINMETH) = 0
 LINEAR SOLUTION METHOD                   (LINMETH) = 1

       SOLUTION BY THE BICONJUGATE-GRADIENT STABILIZED METHOD
 ------------------------------------------------------------------
 MAXIMUM OF 300 CALLS OF SOLUTION ROUTINE
 MAXIMUM OF 600 INTERNAL ITERATIONS PER CALL TO SOLUTION ROUTINE
 LINEAR ACCELERATION METHOD            = BCGS      
 MATRIX PRECONDITIONING TYPE           = MOD. INCOMPLETE LU  
 MATRIX SCALING APPROACH               = NO SCALING          
 MATRIX REORDERING APPROACH            = ORIGINAL ORDERING        
 NUMBER OF ORTHOGONALIZATIONS          = 0
 HEAD CHANGE CRITERION FOR CLOSURE     =    0.10000E-05
 RESIDUAL CHANGE CRITERION FOR CLOSURE =    0.10000E-05
 RESIDUAL CONVERGENCE OPTION           = 0
 RESIDUAL CONVERGENCE NORM             = INFINITY NORM   
 RELAXATION FACTOR                     =    0.10000E+01




 IMS -- ITERATIVE MODEL SOLUTION PACKAGE, VERSION 6, 4/28/2017
         INPUT READ FROM UNIT 9983
 # File generated by Flopy version 3.5.0.dev0 on 05/31/2024 at 15:05:31.

 PROCESSING IMS OPTIONS
 END OF IMS OPTIONS

 PROCESSING IMS NONLINEAR
 END OF IMS NONLINEAR DATA
 ***UNDER-RELAXATION WILL NOT BE USED***
 

 PROCESSING LINEAR DATA
 END OF LINEAR DATA
 ***IMS LINEAR SOLVER WILL BE USED***

 IMSLINEAR -- UNSTRUCTURED LINEAR SOLUTION PACKAGE, VERSION 8, 04/28/2017
 An asymmetric matrix will be solved

 OUTER ITERATION CONVERGENCE CRITERION    (DVCLOSE) =    0.100000E-05
 MAXIMUM NUMBER OF OUTER ITERATIONS        (MXITER) = 300
 SOLVER PRINTOUT INDEX                     (IPRIMS) = 1
 NONLINEAR ITERATION METHOD            (NONLINMETH) = 0
 LINEAR SOLUTION METHOD                   (LINMETH) = 1

       SOLUTION BY THE BICONJUGATE-GRADIENT STABILIZED METHOD
 ------------------------------------------------------------------
 MAXIMUM OF 300 CALLS OF SOLUTION ROUTINE
 MAXIMUM OF 600 INTERNAL ITERATIONS PER CALL TO SOLUTION ROUTINE
 LINEAR ACCELERATION METHOD            = BCGS      
 MATRIX PRECONDITIONING TYPE           = MOD. INCOMPLETE LU  
 MATRIX SCALING APPROACH               = NO SCALING          
 MATRIX REORDERING APPROACH            = ORIGINAL ORDERING        
 NUMBER OF ORTHOGONALIZATIONS          = 0
 HEAD CHANGE CRITERION FOR CLOSURE     =    0.10000E-05
 RESIDUAL CHANGE CRITERION FOR CLOSURE =    0.10000E-05
 RESIDUAL CONVERGENCE OPTION           = 0
 RESIDUAL CONVERGENCE NORM             = INFINITY NORM   
 RELAXATION FACTOR                     =    0.10000E+01




 IMS -- ITERATIVE MODEL SOLUTION PACKAGE, VERSION 6, 4/28/2017
         INPUT READ FROM UNIT 9984
 # File generated by Flopy version 3.5.0.dev0 on 05/31/2024 at 15:05:31.

 PROCESSING IMS OPTIONS
 END OF IMS OPTIONS

 PROCESSING IMS NONLINEAR
 END OF IMS NONLINEAR DATA
 ***UNDER-RELAXATION WILL NOT BE USED***
 

 PROCESSING LINEAR DATA
 END OF LINEAR DATA
 ***IMS LINEAR SOLVER WILL BE USED***

 IMSLINEAR -- UNSTRUCTURED LINEAR SOLUTION PACKAGE, VERSION 8, 04/28/2017
 An asymmetric matrix will be solved

 OUTER ITERATION CONVERGENCE CRITERION    (DVCLOSE) =    0.100000E-05
 MAXIMUM NUMBER OF OUTER ITERATIONS        (MXITER) = 300
 SOLVER PRINTOUT INDEX                     (IPRIMS) = 1
 NONLINEAR ITERATION METHOD            (NONLINMETH) = 0
 LINEAR SOLUTION METHOD                   (LINMETH) = 1

       SOLUTION BY THE BICONJUGATE-GRADIENT STABILIZED METHOD
 ------------------------------------------------------------------
 MAXIMUM OF 300 CALLS OF SOLUTION ROUTINE
 MAXIMUM OF 600 INTERNAL ITERATIONS PER CALL TO SOLUTION ROUTINE
 LINEAR ACCELERATION METHOD            = BCGS      
 MATRIX PRECONDITIONING TYPE           = MOD. INCOMPLETE LU  
 MATRIX SCALING APPROACH               = NO SCALING          
 MATRIX REORDERING APPROACH            = ORIGINAL ORDERING        
 NUMBER OF ORTHOGONALIZATIONS          = 0
 HEAD CHANGE CRITERION FOR CLOSURE     =    0.10000E-05
 RESIDUAL CHANGE CRITERION FOR CLOSURE =    0.10000E-05
 RESIDUAL CONVERGENCE OPTION           = 0
 RESIDUAL CONVERGENCE NORM             = INFINITY NORM   
 RELAXATION FACTOR                     =    0.10000E+01



 
    Solving:  Stress period:     1    Time step:     1
 
1
                            STRESS PERIOD NO. 1, LENGTH =   2000.000    
                            -----------------------------------------------
                            NUMBER OF TIME STEPS = 100
                            MULTIPLIER FOR DELT =     1.000
                            INITIAL TIME STEP SIZE =   20.00000    

 SLN_1 OUTER ITERATION SUMMARY
 ----------------------------------------------------------------------------------------------------------------------------------------------------------------
                                OUTER      INNER  BACKTRACK  BACKTRACK        INCOMING        OUTGOING                    STEP   MAXIMUM CHANGE MODEL-(CELLID) OR
 OUTER ITERATION STEP       ITERATION  ITERATION       FLAG ITERATIONS        RESIDUAL        RESIDUAL  MAXIMUM CHANGE SUCCESS             MODEL-PACKAGE-(NUMBER)
 ----------------------------------------------------------------------------------------------------------------------------------------------------------------
 Backtracking                       1                     0          0       1.5811388       1.5811388                       *                                   
 Model                              1         38                                                             1.9166668                              1_GWF-(1,1,2)
 Backtracking                       2                     0          0  3.14151776E-06  3.14151776E-06                       *                                   
 Model                              2          5                                                       -6.18518193E-06                              1_GWF-(6,1,7)
 Backtracking                       3                     0          0  9.70681656E-08  9.70681656E-08                       *                                   
 Model                              3          1                                                        9.84448487E-08       *                      1_GWF-(6,1,7)
 ----------------------------------------------------------------------------------------------------------------------------------------------------------------


 3 CALLS TO NUMERICAL SOLUTION IN TIME STEP 1 STRESS PERIOD 1
 44 TOTAL ITERATIONS

 SLN_2 OUTER ITERATION SUMMARY
 ----------------------------------------------------------------------------------------------------------
                                OUTER      INNER                    STEP   MAXIMUM CHANGE MODEL-(CELLID) OR
 OUTER ITERATION STEP       ITERATION  ITERATION  MAXIMUM CHANGE SUCCESS             MODEL-PACKAGE-(NUMBER)
 ----------------------------------------------------------------------------------------------------------
 Model                              1          5       82.387157                              2_GWT-(3,1,1)
 Model                              2          4      -2.5035537                              2_GWT-(1,1,2)
 Model                              3          4     -0.32273094                              2_GWT-(1,1,2)
 Model                              4          3  5.67368245E-02                              2_GWT-(1,1,3)
 Model                              5          3  1.14435040E-02                              2_GWT-(1,1,3)
 Model                              6          3  2.38237192E-03                              2_GWT-(1,1,3)
 Model                              7          3  5.10707177E-04                              2_GWT-(1,1,3)
 Model                              8          2  1.12215334E-04                              2_GWT-(1,1,3)
 Model                              9          2  2.51627935E-05                              2_GWT-(1,1,3)
 Model                             10          2  5.73456055E-06                              2_GWT-(1,1,3)
 Model                             11          2  1.31993147E-06                              2_GWT-(1,1,3)
 Model                             12          1  3.01515684E-07       *                      2_GWT-(1,1,3)
 ----------------------------------------------------------------------------------------------------------


 12 CALLS TO NUMERICAL SOLUTION IN TIME STEP 1 STRESS PERIOD 1
 34 TOTAL ITERATIONS

 SLN_3 OUTER ITERATION SUMMARY
 ----------------------------------------------------------------------------------------------------------
                                OUTER      INNER                    STEP   MAXIMUM CHANGE MODEL-(CELLID) OR
 OUTER ITERATION STEP       ITERATION  ITERATION  MAXIMUM CHANGE SUCCESS             MODEL-PACKAGE-(NUMBER)
 ----------------------------------------------------------------------------------------------------------
 Model                              1          5       40.727808                              3_GWT-(1,1,1)
 Model                              2          4      0.33256774                              3_GWT-(1,1,2)
 Model                              3          3  4.28757091E-02                              3_GWT-(1,1,2)
 Model                              4          3 -7.54121484E-03                              3_GWT-(1,1,3)
 Model                              5          3 -1.52103109E-03                              3_GWT-(1,1,3)
 Model                              6          2 -3.16596394E-04                              3_GWT-(1,1,3)
 Model                              7          2 -6.78610813E-05                              3_GWT-(1,1,3)
 Model                              8          2 -1.49112675E-05                              3_GWT-(1,1,3)
 Model                              9          2 -3.34176002E-06                              3_GWT-(1,1,3)
 Model                             10          1 -7.52821506E-07       *                      3_GWT-(1,1,3)
 ----------------------------------------------------------------------------------------------------------


 10 CALLS TO NUMERICAL SOLUTION IN TIME STEP 1 STRESS PERIOD 1
 27 TOTAL ITERATIONS

 SLN_4 OUTER ITERATION SUMMARY
 ----------------------------------------------------------------------------------------------------------
                                OUTER      INNER                    STEP   MAXIMUM CHANGE MODEL-(CELLID) OR
 OUTER ITERATION STEP       ITERATION  ITERATION  MAXIMUM CHANGE SUCCESS             MODEL-PACKAGE-(NUMBER)
 ----------------------------------------------------------------------------------------------------------
 Model                              1          4  3.22711297E-02                              4_GWT-(3,1,1)
 Model                              2          3 -1.67101915E-03                              4_GWT-(1,1,2)
 Model                              3          2 -2.15403963E-04                              4_GWT-(1,1,2)
 Model                              4          2  3.78720220E-05                              4_GWT-(1,1,3)
 Model                              5          2  7.63695666E-06                              4_GWT-(1,1,3)
 Model                              6          2  1.58897897E-06                              4_GWT-(1,1,3)
 Model                              7          1  3.33419246E-07       *                      4_GWT-(1,1,3)
 ----------------------------------------------------------------------------------------------------------


 7 CALLS TO NUMERICAL SOLUTION IN TIME STEP 1 STRESS PERIOD 1
 16 TOTAL ITERATIONS

 SLN_5 OUTER ITERATION SUMMARY
 ----------------------------------------------------------------------------------------------------------
                                OUTER      INNER                    STEP   MAXIMUM CHANGE MODEL-(CELLID) OR
 OUTER ITERATION STEP       ITERATION  ITERATION  MAXIMUM CHANGE SUCCESS             MODEL-PACKAGE-(NUMBER)
 ----------------------------------------------------------------------------------------------------------
 Model                              1          4      0.83872517                              5_GWT-(1,1,1)
 Model                              2          3  2.10803189E-02                              5_GWT-(1,1,2)
 Model                              3          3  2.71751242E-03                              5_GWT-(1,1,2)
 Model                              4          3 -4.77789899E-04                              5_GWT-(1,1,3)
 Model                              5          2 -9.63690615E-05                              5_GWT-(1,1,3)
 Model                              6          2 -2.00615049E-05                              5_GWT-(1,1,3)
 Model                              7          2 -4.29978281E-06                              5_GWT-(1,1,3)
 Model                              8          1 -9.38950092E-07       *                      5_GWT-(1,1,3)
 ----------------------------------------------------------------------------------------------------------


 8 CALLS TO NUMERICAL SOLUTION IN TIME STEP 1 STRESS PERIOD 1
 20 TOTAL ITERATIONS

 SLN_6 OUTER ITERATION SUMMARY
 ----------------------------------------------------------------------------------------------------------
                                OUTER      INNER                    STEP   MAXIMUM CHANGE MODEL-(CELLID) OR
 OUTER ITERATION STEP       ITERATION  ITERATION  MAXIMUM CHANGE SUCCESS             MODEL-PACKAGE-(NUMBER)
 ----------------------------------------------------------------------------------------------------------
 Model                              1          4      -3.8755173                              6_GWT-(3,1,1)
 Model                              2          4  8.59122608E-02                              6_GWT-(1,1,2)
 Model                              3          3  1.10751256E-02                              6_GWT-(1,1,2)
 Model                              4          3 -1.94722177E-03                              6_GWT-(1,1,3)
 Model                              5          3 -3.92746190E-04                              6_GWT-(1,1,3)
 Model                              6          2 -8.17582997E-05                              6_GWT-(1,1,3)
 Model                              7          2 -1.75274636E-05                              6_GWT-(1,1,3)
 Model                              8          2 -3.85092271E-06                              6_GWT-(1,1,3)
 Model                              9          1 -8.56297000E-07       *                      6_GWT-(1,1,3)
 ----------------------------------------------------------------------------------------------------------


 9 CALLS TO NUMERICAL SOLUTION IN TIME STEP 1 STRESS PERIOD 1
 24 TOTAL ITERATIONS

 SLN_7 OUTER ITERATION SUMMARY
 ----------------------------------------------------------------------------------------------------------
                                OUTER      INNER                    STEP   MAXIMUM CHANGE MODEL-(CELLID) OR
 OUTER ITERATION STEP       ITERATION  ITERATION  MAXIMUM CHANGE SUCCESS             MODEL-PACKAGE-(NUMBER)
 ----------------------------------------------------------------------------------------------------------
 Model                              1          4      -4.9977719                              7_GWT-(3,1,1)
 Model                              2          4      0.18500904                              7_GWT-(1,1,2)
 Model                              3          3  2.38498968E-02                              7_GWT-(1,1,2)
 Model                              4          3 -4.19327557E-03                              7_GWT-(1,1,3)
 Model                              5          3 -8.45765056E-04                              7_GWT-(1,1,3)
 Model                              6          2 -1.76064603E-04                              7_GWT-(1,1,3)
 Model                              7          2 -3.77431266E-05                              7_GWT-(1,1,3)
 Model                              8          2 -8.29378065E-06                              7_GWT-(1,1,3)
 Model                              9          2 -1.85753510E-06                              7_GWT-(1,1,3)
 Model                             10          1 -4.16142218E-07       *                      7_GWT-(1,1,3)
 ----------------------------------------------------------------------------------------------------------


 10 CALLS TO NUMERICAL SOLUTION IN TIME STEP 1 STRESS PERIOD 1
 26 TOTAL ITERATIONS

 SLN_8 OUTER ITERATION SUMMARY
 ----------------------------------------------------------------------------------------------------------
                                OUTER      INNER                    STEP   MAXIMUM CHANGE MODEL-(CELLID) OR
 OUTER ITERATION STEP       ITERATION  ITERATION  MAXIMUM CHANGE SUCCESS             MODEL-PACKAGE-(NUMBER)
 ----------------------------------------------------------------------------------------------------------
 Model                              1          4      0.37605781                              8_GWT-(3,1,1)
 Model                              2          3 -1.94725391E-02                              8_GWT-(1,1,2)
 Model                              3          3 -2.51024974E-03                              8_GWT-(1,1,2)
 Model                              4          3  4.41349161E-04                              8_GWT-(1,1,3)
 Model                              5          2  8.90190608E-05                              8_GWT-(1,1,3)
 Model                              6          2  1.85314718E-05                              8_GWT-(1,1,3)
 Model                              7          2  3.97176892E-06                              8_GWT-(1,1,3)
 Model                              8          1  8.66790467E-07       *                      8_GWT-(1,1,3)
 ----------------------------------------------------------------------------------------------------------


 8 CALLS TO NUMERICAL SOLUTION IN TIME STEP 1 STRESS PERIOD 1
 20 TOTAL ITERATIONS

 SLN_9 OUTER ITERATION SUMMARY
 ----------------------------------------------------------------------------------------------------------
                                OUTER      INNER                    STEP   MAXIMUM CHANGE MODEL-(CELLID) OR
 OUTER ITERATION STEP       ITERATION  ITERATION  MAXIMUM CHANGE SUCCESS             MODEL-PACKAGE-(NUMBER)
 ----------------------------------------------------------------------------------------------------------
 Model                              1          4       5.9475607                              9_GWT-(1,1,1)
 Model                              2          4      0.15061243                              9_GWT-(1,1,2)
 Model                              3          3  1.94157580E-02                              9_GWT-(1,1,2)
 Model                              4          3 -3.41366709E-03                              9_GWT-(1,1,3)
 Model                              5          3 -6.88521578E-04                              9_GWT-(1,1,3)
 Model                              6          2 -1.43330737E-04                              9_GWT-(1,1,3)
 Model                              7          2 -3.07263519E-05                              9_GWT-(1,1,3)
 Model                              8          2 -6.75167402E-06                              9_GWT-(1,1,3)
 Model                              9          2 -1.51108099E-06                              9_GWT-(1,1,3)
 Model                             10          1 -3.37546719E-07       *                      9_GWT-(1,1,3)
 ----------------------------------------------------------------------------------------------------------


 10 CALLS TO NUMERICAL SOLUTION IN TIME STEP 1 STRESS PERIOD 1
 26 TOTAL ITERATIONS

 SLN_10 OUTER ITERATION SUMMARY
 ----------------------------------------------------------------------------------------------------------
                                OUTER      INNER                    STEP   MAXIMUM CHANGE MODEL-(CELLID) OR
 OUTER ITERATION STEP       ITERATION  ITERATION  MAXIMUM CHANGE SUCCESS             MODEL-PACKAGE-(NUMBER)
 ----------------------------------------------------------------------------------------------------------
 Model                              1          4     -0.29989682                             10_GWT-(3,1,1)
 Model                              2          3  1.55288687E-02                             10_GWT-(1,1,2)
 Model                              3          3  2.00186227E-03                             10_GWT-(1,1,2)
 Model                              4          3 -3.51965151E-04                             10_GWT-(1,1,3)
 Model                              5          2 -7.09905054E-05                             10_GWT-(1,1,3)
 Model                              6          2 -1.47784785E-05                             10_GWT-(1,1,3)
 Model                              7          2 -3.16718507E-06                             10_GWT-(1,1,3)
 Model                              8          1 -6.89751735E-07       *                     10_GWT-(1,1,3)
 ----------------------------------------------------------------------------------------------------------


 8 CALLS TO NUMERICAL SOLUTION IN TIME STEP 1 STRESS PERIOD 1
 20 TOTAL ITERATIONS

 SLN_11 OUTER ITERATION SUMMARY
 ----------------------------------------------------------------------------------------------------------
                                OUTER      INNER                    STEP   MAXIMUM CHANGE MODEL-(CELLID) OR
 OUTER ITERATION STEP       ITERATION  ITERATION  MAXIMUM CHANGE SUCCESS             MODEL-PACKAGE-(NUMBER)
 ----------------------------------------------------------------------------------------------------------
 Model                              1          4      0.40908155                             11_GWT-(3,1,1)
 Model                              2          3 -2.11825318E-02                             11_GWT-(1,1,2)
 Model                              3          3 -2.73068872E-03                             11_GWT-(1,1,2)
 Model                              4          3  4.80106436E-04                             11_GWT-(1,1,3)
 Model                              5          2  9.68363017E-05                             11_GWT-(1,1,3)
 Model                              6          2  2.01587722E-05                             11_GWT-(1,1,3)
 Model                              7          2  4.32063602E-06                             11_GWT-(1,1,3)
 Model                              8          1  9.43537396E-07       *                     11_GWT-(1,1,3)
 ----------------------------------------------------------------------------------------------------------


 8 CALLS TO NUMERICAL SOLUTION IN TIME STEP 1 STRESS PERIOD 1
 20 TOTAL ITERATIONS

 SLN_12 OUTER ITERATION SUMMARY
 ----------------------------------------------------------------------------------------------------------
                                OUTER      INNER                    STEP   MAXIMUM CHANGE MODEL-(CELLID) OR
 OUTER ITERATION STEP       ITERATION  ITERATION  MAXIMUM CHANGE SUCCESS             MODEL-PACKAGE-(NUMBER)
 ----------------------------------------------------------------------------------------------------------
 Model                              1          3  1.54674888E-02                             12_GWT-(3,1,1)
 Model                              2          3 -8.00918049E-04                             12_GWT-(1,1,2)
 Model                              3          2 -1.03236815E-04                             12_GWT-(1,1,2)
 Model                              4          2  1.81498461E-05                             12_GWT-(1,1,3)
 Model                              5          2  3.65918503E-06                             12_GWT-(1,1,3)
 Model                              6          1  7.59503460E-07       *                     12_GWT-(1,1,3)
[...]
 Model                              5          3  4.17829600E-04                              3_GWT-(1,1,4)
 Model                              6          2  6.79093500E-05                              3_GWT-(1,1,4)
 Model                              7          2  1.09909743E-05                              3_GWT-(1,1,4)
 Model                              8          2  1.77309994E-06                              3_GWT-(1,1,4)
 Model                              9          1  2.80226232E-07       *                      3_GWT-(1,1,4)
 ----------------------------------------------------------------------------------------------------------


 9 CALLS TO NUMERICAL SOLUTION IN TIME STEP 100 STRESS PERIOD 1
 24 TOTAL ITERATIONS

 SLN_4 OUTER ITERATION SUMMARY
 ----------------------------------------------------------------------------------------------------------
                                OUTER      INNER                    STEP   MAXIMUM CHANGE MODEL-(CELLID) OR
 OUTER ITERATION STEP       ITERATION  ITERATION  MAXIMUM CHANGE SUCCESS             MODEL-PACKAGE-(NUMBER)
 ----------------------------------------------------------------------------------------------------------
 Model                              1          2 -1.02883808E-04                             4_GWT-(2,1,25)
 Model                              2          2 -1.61155356E-06                             4_GWT-(8,1,25)
 Model                              3          1 -7.68556272E-08       *                    4_GWT-(10,1,17)
 ----------------------------------------------------------------------------------------------------------


 3 CALLS TO NUMERICAL SOLUTION IN TIME STEP 100 STRESS PERIOD 1
 5 TOTAL ITERATIONS

 SLN_5 OUTER ITERATION SUMMARY
 ----------------------------------------------------------------------------------------------------------
                                OUTER      INNER                    STEP   MAXIMUM CHANGE MODEL-(CELLID) OR
 OUTER ITERATION STEP       ITERATION  ITERATION  MAXIMUM CHANGE SUCCESS             MODEL-PACKAGE-(NUMBER)
 ----------------------------------------------------------------------------------------------------------
 Model                              1          4      0.79744581                              5_GWT-(3,1,1)
 Model                              2          3  4.28796607E-02                              5_GWT-(1,1,2)
 Model                              3          3  5.54472650E-03                              5_GWT-(1,1,2)
 Model                              4          3 -9.92906449E-04                              5_GWT-(1,1,3)
 Model                              5          2 -2.00577857E-04                              5_GWT-(1,1,3)
 Model                              6          2 -4.18115155E-05                              5_GWT-(1,1,3)
 Model                              7          2 -8.97885541E-06                              5_GWT-(1,1,3)
 Model                              8          2 -1.97588071E-06                              5_GWT-(1,1,3)
 Model                              9          1 -4.36877006E-07       *                      5_GWT-(1,1,3)
 ----------------------------------------------------------------------------------------------------------


 9 CALLS TO NUMERICAL SOLUTION IN TIME STEP 100 STRESS PERIOD 1
 22 TOTAL ITERATIONS

 SLN_6 OUTER ITERATION SUMMARY
 ----------------------------------------------------------------------------------------------------------
                                OUTER      INNER                    STEP   MAXIMUM CHANGE MODEL-(CELLID) OR
 OUTER ITERATION STEP       ITERATION  ITERATION  MAXIMUM CHANGE SUCCESS             MODEL-PACKAGE-(NUMBER)
 ----------------------------------------------------------------------------------------------------------
 Model                              1          4     -0.83303191                              6_GWT-(1,1,2)
 Model                              2          4 -7.32821863E-02                              6_GWT-(1,1,6)
 Model                              3          3 -9.43348354E-03                              6_GWT-(1,1,6)
 Model                              4          3  1.52808394E-03                              6_GWT-(1,1,7)
 Model                              5          2  3.54486697E-04                              6_GWT-(1,1,7)
 Model                              6          2  9.21565830E-05                              6_GWT-(1,1,7)
 Model                              7          2  2.32922879E-05                              6_GWT-(1,1,7)
 Model                              8          2  5.98292492E-06                              6_GWT-(1,1,7)
 Model                              9          2  1.52740165E-06                              6_GWT-(1,1,7)
 Model                             10          1  3.85144507E-07       *                      6_GWT-(1,1,7)
 ----------------------------------------------------------------------------------------------------------


 10 CALLS TO NUMERICAL SOLUTION IN TIME STEP 100 STRESS PERIOD 1
 25 TOTAL ITERATIONS

 SLN_7 OUTER ITERATION SUMMARY
 ----------------------------------------------------------------------------------------------------------
                                OUTER      INNER                    STEP   MAXIMUM CHANGE MODEL-(CELLID) OR
 OUTER ITERATION STEP       ITERATION  ITERATION  MAXIMUM CHANGE SUCCESS             MODEL-PACKAGE-(NUMBER)
 ----------------------------------------------------------------------------------------------------------
 Model                              1          4      -1.7861844                              7_GWT-(5,1,5)
 Model                              2          4     -0.11487591                              7_GWT-(1,1,6)
 Model                              3          3 -1.70759870E-02                              7_GWT-(1,1,6)
 Model                              4          3 -3.41391665E-03                              7_GWT-(1,1,6)
 Model                              5          3 -7.13547749E-04                              7_GWT-(1,1,6)
 Model                              6          2 -1.46297333E-04                              7_GWT-(1,1,6)
 Model                              7          2 -3.00977422E-05                              7_GWT-(1,1,6)
 Model                              8          2 -6.23218452E-06                              7_GWT-(1,1,6)
 Model                              9          2 -1.29309840E-06                              7_GWT-(1,1,6)
 Model                             10          1 -2.62329745E-07       *                      7_GWT-(1,1,6)
 ----------------------------------------------------------------------------------------------------------


 10 CALLS TO NUMERICAL SOLUTION IN TIME STEP 100 STRESS PERIOD 1
 26 TOTAL ITERATIONS

 SLN_8 OUTER ITERATION SUMMARY
 ----------------------------------------------------------------------------------------------------------
                                OUTER      INNER                    STEP   MAXIMUM CHANGE MODEL-(CELLID) OR
 OUTER ITERATION STEP       ITERATION  ITERATION  MAXIMUM CHANGE SUCCESS             MODEL-PACKAGE-(NUMBER)
 ----------------------------------------------------------------------------------------------------------
 Model                              1          3 -1.19883775E-03                             8_GWT-(1,1,25)
 Model                              2          2 -1.87549077E-05                             8_GWT-(8,1,25)
 Model                              3          2 -1.04255123E-06                            8_GWT-(10,1,17)
 Model                              4          1 -1.79400164E-07       *                    8_GWT-(10,1,18)
 ----------------------------------------------------------------------------------------------------------


 4 CALLS TO NUMERICAL SOLUTION IN TIME STEP 100 STRESS PERIOD 1
 8 TOTAL ITERATIONS

 SLN_9 OUTER ITERATION SUMMARY
 ----------------------------------------------------------------------------------------------------------
                                OUTER      INNER                    STEP   MAXIMUM CHANGE MODEL-(CELLID) OR
 OUTER ITERATION STEP       ITERATION  ITERATION  MAXIMUM CHANGE SUCCESS             MODEL-PACKAGE-(NUMBER)
 ----------------------------------------------------------------------------------------------------------
 Model                              1          4       1.2140704                              9_GWT-(5,1,5)
 Model                              2          4      0.13084640                              9_GWT-(1,1,6)
 Model                              3          3  2.06680677E-02                              9_GWT-(1,1,6)
 Model                              4          3  3.76304695E-03                              9_GWT-(1,1,6)
 Model                              5          3 -7.89287755E-04                              9_GWT-(1,1,7)
 Model                              6          2 -1.86776470E-04                              9_GWT-(1,1,7)
 Model                              7          2 -4.48758509E-05                              9_GWT-(1,1,7)
 Model                              8          2 -1.09639984E-05                              9_GWT-(1,1,7)
 Model                              9          2 -2.72059021E-06                              9_GWT-(1,1,7)
 Model                             10          1 -6.78279291E-07       *                      9_GWT-(1,1,7)
 ----------------------------------------------------------------------------------------------------------


 10 CALLS TO NUMERICAL SOLUTION IN TIME STEP 100 STRESS PERIOD 1
 26 TOTAL ITERATIONS

 SLN_10 OUTER ITERATION SUMMARY
 ----------------------------------------------------------------------------------------------------------
                                OUTER      INNER                    STEP   MAXIMUM CHANGE MODEL-(CELLID) OR
 OUTER ITERATION STEP       ITERATION  ITERATION  MAXIMUM CHANGE SUCCESS             MODEL-PACKAGE-(NUMBER)
 ----------------------------------------------------------------------------------------------------------
 Model                              1          3  9.56039702E-04                            10_GWT-(1,1,25)
 Model                              2          2  1.49567598E-05                            10_GWT-(8,1,25)
 Model                              3          1  8.21828510E-07       *                   10_GWT-(10,1,17)
 ----------------------------------------------------------------------------------------------------------


 3 CALLS TO NUMERICAL SOLUTION IN TIME STEP 100 STRESS PERIOD 1
 6 TOTAL ITERATIONS

 SLN_11 OUTER ITERATION SUMMARY
 ----------------------------------------------------------------------------------------------------------
                                OUTER      INNER                    STEP   MAXIMUM CHANGE MODEL-(CELLID) OR
 OUTER ITERATION STEP       ITERATION  ITERATION  MAXIMUM CHANGE SUCCESS             MODEL-PACKAGE-(NUMBER)
 ----------------------------------------------------------------------------------------------------------
 Model                              1          3 -1.30407601E-03                            11_GWT-(1,1,25)
 Model                              2          2 -2.04016931E-05                            11_GWT-(8,1,25)
 Model                              3          2 -1.13437411E-06                           11_GWT-(10,1,17)
 Model                              4          1 -1.97260245E-07       *                   11_GWT-(10,1,18)
 ----------------------------------------------------------------------------------------------------------


 4 CALLS TO NUMERICAL SOLUTION IN TIME STEP 100 STRESS PERIOD 1
 8 TOTAL ITERATIONS

 SLN_12 OUTER ITERATION SUMMARY
 ----------------------------------------------------------------------------------------------------------
                                OUTER      INNER                    STEP   MAXIMUM CHANGE MODEL-(CELLID) OR
 OUTER ITERATION STEP       ITERATION  ITERATION  MAXIMUM CHANGE SUCCESS             MODEL-PACKAGE-(NUMBER)
 ----------------------------------------------------------------------------------------------------------
 Model                              1          2 -4.93701682E-05                           12_GWT-(10,1,25)
 Model                              2          1 -7.83562784E-07       *                    12_GWT-(1,1,25)
 ----------------------------------------------------------------------------------------------------------


 2 CALLS TO NUMERICAL SOLUTION IN TIME STEP 100 STRESS PERIOD 1
 3 TOTAL ITERATIONS

 SLN_13 OUTER ITERATION SUMMARY
 ----------------------------------------------------------------------------------------------------------
                                OUTER      INNER                    STEP   MAXIMUM CHANGE MODEL-(CELLID) OR
 OUTER ITERATION STEP       ITERATION  ITERATION  MAXIMUM CHANGE SUCCESS             MODEL-PACKAGE-(NUMBER)
 ----------------------------------------------------------------------------------------------------------
 Model                              1          2  1.18439887E-04                            13_GWT-(2,1,25)
 Model                              2          2  1.85550931E-06                            13_GWT-(9,1,25)
 Model                              3          1  9.05331479E-08       *                   13_GWT-(10,1,17)
 ----------------------------------------------------------------------------------------------------------


 3 CALLS TO NUMERICAL SOLUTION IN TIME STEP 100 STRESS PERIOD 1
 5 TOTAL ITERATIONS

 SLN_14 OUTER ITERATION SUMMARY
 ----------------------------------------------------------------------------------------------------------
                                OUTER      INNER                    STEP   MAXIMUM CHANGE MODEL-(CELLID) OR
 OUTER ITERATION STEP       ITERATION  ITERATION  MAXIMUM CHANGE SUCCESS             MODEL-PACKAGE-(NUMBER)
 ----------------------------------------------------------------------------------------------------------
 Model                              1          4     -0.22859698                             14_GWT-(2,1,6)
 Model                              2          3 -8.78732868E-03                             14_GWT-(1,1,5)
 Model                              3          3  1.36498825E-03                             14_GWT-(1,1,4)
 Model                              4          2  1.76622434E-04                             14_GWT-(1,1,4)
 Model                              5          2  1.92847191E-05                             14_GWT-(1,1,4)
 Model                              6          2 -2.43800723E-06                             14_GWT-(1,1,3)
 Model                              7          1 -2.89159729E-07       *                     14_GWT-(1,1,3)
 ----------------------------------------------------------------------------------------------------------


 7 CALLS TO NUMERICAL SOLUTION IN TIME STEP 100 STRESS PERIOD 1
 17 TOTAL ITERATIONS

 SLN_15 OUTER ITERATION SUMMARY
 ----------------------------------------------------------------------------------------------------------
                                OUTER      INNER                    STEP   MAXIMUM CHANGE MODEL-(CELLID) OR
 OUTER ITERATION STEP       ITERATION  ITERATION  MAXIMUM CHANGE SUCCESS             MODEL-PACKAGE-(NUMBER)
 ----------------------------------------------------------------------------------------------------------
 Model                              1          3  3.78560492E-02                             15_GWT-(1,1,1)
 Model                              2          3  8.27835007E-04                             15_GWT-(1,1,2)
 Model                              3          2  1.34501013E-04                             15_GWT-(1,1,2)
 Model                              4          2  2.61101261E-05                             15_GWT-(1,1,2)
 Model                              5          2  4.95996541E-06                             15_GWT-(1,1,2)
 Model                              6          1  9.11540350E-07       *                     15_GWT-(1,1,2)
 ----------------------------------------------------------------------------------------------------------


 6 CALLS TO NUMERICAL SOLUTION IN TIME STEP 100 STRESS PERIOD 1
 13 TOTAL ITERATIONS


 Solution SLN_1 summary
 ----------------------------------------------------------------------
 Total formulate time:  .000000000000000 seconds
 Total solution time:   .000000000000000 seconds



 Solution SLN_2 summary
 ----------------------------------------------------------------------
 Total formulate time:  .7812500000000000E-01 seconds
 Total solution time:   .3125000000000000E-01 seconds



 Solution SLN_3 summary
 ----------------------------------------------------------------------
 Total formulate time:  .2031250000000000 seconds
 Total solution time:   .1562500000000000E-01 seconds



 Solution SLN_4 summary
 ----------------------------------------------------------------------
 Total formulate time:  .3125000000000000E-01 seconds
 Total solution time:   .000000000000000 seconds



 Solution SLN_5 summary
 ----------------------------------------------------------------------
 Total formulate time:  .1406250000000000 seconds
 Total solution time:   .000000000000000 seconds



 Solution SLN_6 summary
 ----------------------------------------------------------------------
 Total formulate time:  .2343750000000000 seconds
 Total solution time:   .000000000000000 seconds



 Solution SLN_7 summary
 ----------------------------------------------------------------------
 Total formulate time:  .3281250000000000 seconds
 Total solution time:   .000000000000000 seconds



 Solution SLN_8 summary
 ----------------------------------------------------------------------
 Total formulate time:  .9375000000000000E-01 seconds
 Total solution time:   .000000000000000 seconds



 Solution SLN_9 summary
 ----------------------------------------------------------------------
 Total formulate time:  .1562500000000000 seconds
 Total solution time:   .000000000000000 seconds



 Solution SLN_10 summary
 ----------------------------------------------------------------------
 Total formulate time:  .1718750000000000 seconds
 Total solution time:   .000000000000000 seconds



 Solution SLN_11 summary
 ----------------------------------------------------------------------
 Total formulate time:  .3125000000000000E-01 seconds
 Total solution time:   .000000000000000 seconds



 Solution SLN_12 summary
 ----------------------------------------------------------------------
 Total formulate time:  .000000000000000 seconds
 Total solution time:   .000000000000000 seconds



 Solution SLN_13 summary
 ----------------------------------------------------------------------
 Total formulate time:  .4687500000000000E-01 seconds
 Total solution time:   .000000000000000 seconds



 Solution SLN_14 summary
 ----------------------------------------------------------------------
 Total formulate time:  .9375000000000000E-01 seconds
 Total solution time:   .000000000000000 seconds



 Solution SLN_15 summary
 ----------------------------------------------------------------------
 Total formulate time:  .9375000000000000E-01 seconds
 Total solution time:   .000000000000000 seconds


 MEMORY MANAGER TOTAL STORAGE BY DATA TYPE, IN MEGABYTES
 -------------------------------
                    ALLOCATED   
 DATA TYPE           MEMORY     
 -------------------------------
 Character        0.50430400    
 Logical          7.68000000E-04
 Integer          7.4634040     
 Real             21.388416     
 -------------------------------
 Total            29.356892     
 Virtual          0.0000000     
 -------------------------------


 
 Run end date and time (yyyy/mm/dd hh:mm:ss): 2024/05/31 15:05:55
 Elapsed run time: 23.827 Seconds
 Normal termination of simulation.
