                                   MODFLOW 6
                U.S. GEOLOGICAL SURVEY MODULAR HYDROLOGIC MODEL
                VERSION 6.5.0.dev0+prt (preliminary) 10/07/2023
                               ***DEVELOP MODE***

   MODFLOW 6 compiled Oct 07 2023 02:19:02 with Intel(R) Fortran Intel(R) 64
   Compiler Classic for applications running on Intel(R) 64, Version 2021.7.0
                             Build 20220726_000000

This software is preliminary or provisional and is subject to 
revision. It is being provided to meet the need for timely best 
science. The software has not received final approval by the U.S. 
Geological Survey (USGS). No warranty, expressed or implied, is made 
by the USGS or the U.S. Government as to the functionality of the 
software and related material nor shall the fact of release 
constitute any such warranty. The software is provided on the 
condition that neither the USGS nor the U.S. Government shall be held 
liable for any damages resulting from the authorized or unauthorized 
use of the software.


As a work of the United States Government, this USGS product is 
in the public domain within the United States. You can copy, 
modify, distribute, and perform the work, even for commercial 
purposes, all without asking permission. Additionally, USGS 
waives copyright and related rights in the work worldwide 
through CC0 1.0 Universal Public Domain Dedication 
(https://creativecommons.org/publicdomain/zero/1.0/).

The following GNU Lesser General Public License (LGPL) libraries
are used in this USGS product:

    SPARSKIT version 2.0
      ilut, luson, and qsplit 
      (https://www-users.cse.umn.edu/~saad/software/SPARSKIT/)

    RCM - Reverse Cuthill McKee Ordering
      (https://people.math.sc.edu/Burkardt/f_src/rcm/rcm.html)

    BLAS - Basic Linear Algebra Subprograms Level 1
      (https://people.math.sc.edu/Burkardt/f_src/blas1_d/blas1_d.html)

    SPARSEKIT - Sparse Matrix Utility Package
      amux, dperm, dvperm, rperm, and cperm
      (https://people.sc.fsu.edu/~jburkardt/f77_src/sparsekit/sparsekit.html)

The following BSD-3 License libraries are used in this USGS product:

    Modern Fortran DAG Library
      Copyright (c) 2018, Jacob Williams
      All rights reserved.
      (https://github.com/jacobwilliams/daglib)

MODFLOW 6 compiler options: /Isrc\libmf6core.a.p /Isrc /I..\src
/Isrc\libmf6_external.a.p /MTd /nologo /warn:general /warn:truncated_source
/stand:f08 /Zi /traceback /O2 /fpe:0 /heap-arrays:0 /traceback /fpp
/Qdiag-disable:7416 /Qdiag-disable:7025 /Qdiag-disable:5268
/Fdsrc\libmf6core.a.p\Utilities_compilerversion.F90.pdb
/module:src\libmf6core.a.p
/Fosrc/libmf6core.a.p/Utilities_compilerversion.F90.obj /c

System command used to initiate simulation:
c:\Users\portega\anaconda3\envs\mf6rtm\python.exe -m ipykernel_launcher --f=c:\Users\portega\AppData\Roaming\jupyter\runtime\kernel-v2-17404iCBvKc1FbHvz.json

MODFLOW was compiled using uniform precision.

Real Variables
  KIND: 8
  TINY (smallest non-zero value):    2.225074-308
  HUGE (largest value):    1.797693+308
  PRECISION: 15
  SIZE IN BITS: 64

Integer Variables
  KIND: 4
  HUGE (largest value): 2147483647
  SIZE IN BITS: 32

Long Integer Variables
  KIND: 8
  HUGE (largest value): 9223372036854775807
  SIZE IN BITS: 64

Logical Variables
  KIND: 4
  SIZE IN BITS: 32
 

 OPENED mfsim.nam
 FILE TYPE:NAM6      UNIT 5594   STATUS:OLD                 
 FORMAT:FORMATTED              ACCESS:SEQUENTIAL          
 ACTION:READ                

 # File generated by Flopy version 3.5.0.dev0 on 07/12/2024 at 09:44:05.

 OPENED gwf.nam
 FILE TYPE:GWF6      UNIT 5595   STATUS:OLD                 
 FORMAT:FORMATTED              ACCESS:SEQUENTIAL          
 ACTION:READ                

 # File generated by Flopy version 3.5.0.dev0 on 07/12/2024 at 09:44:05.

 OPENED gwf.dis
 FILE TYPE:DIS6      UNIT 5596   STATUS:OLD                 
 FORMAT:FORMATTED              ACCESS:SEQUENTIAL          
 ACTION:READ                

 # File generated by Flopy version 3.5.0.dev0 on 07/12/2024 at 09:44:05.

 OPENED gwf.npf
 FILE TYPE:NPF6      UNIT 5620   STATUS:OLD                 
 FORMAT:FORMATTED              ACCESS:SEQUENTIAL          
 ACTION:READ                

 # File generated by Flopy version 3.5.0.dev0 on 07/12/2024 at 09:44:05.

 OPENED gwf.ic
 FILE TYPE:IC6       UNIT 5624   STATUS:OLD                 
 FORMAT:FORMATTED              ACCESS:SEQUENTIAL          
 ACTION:READ                


 OPENED gwf.oc
 FILE TYPE:OC6       UNIT 5625   STATUS:OLD                 
 FORMAT:FORMATTED              ACCESS:SEQUENTIAL          
 ACTION:READ                


 OPENED gwf.chd
 FILE TYPE:CHD6      UNIT 5626   STATUS:OLD                 
 FORMAT:FORMATTED              ACCESS:SEQUENTIAL          
 ACTION:READ                

 # File generated by Flopy version 3.5.0.dev0 on 07/12/2024 at 09:44:05.
    AUXILIARY  VARIABLE: H               
    AUXILIARY  VARIABLE: O               
    AUXILIARY  VARIABLE: CHARGE          
    AUXILIARY  VARIABLE: AL              
    AUXILIARY  VARIABLE: C               
    AUXILIARY  VARIABLE: CA              
    AUXILIARY  VARIABLE: CL              
    AUXILIARY  VARIABLE: FE              
    AUXILIARY  VARIABLE: K               
    AUXILIARY  VARIABLE: MG              
    AUXILIARY  VARIABLE: MN              
    AUXILIARY  VARIABLE: NA              
    AUXILIARY  VARIABLE: S               
    AUXILIARY  VARIABLE: SI              

 OPENED H.nam
 FILE TYPE:GWT6      UNIT 5627   STATUS:OLD                 
 FORMAT:FORMATTED              ACCESS:SEQUENTIAL          
 ACTION:READ                

 # File generated by Flopy version 3.5.0.dev0 on 07/12/2024 at 09:44:05.

 OPENED H.dis
 FILE TYPE:DIS6      UNIT 5628   STATUS:OLD                 
 FORMAT:FORMATTED              ACCESS:SEQUENTIAL          
 ACTION:READ                

 # File generated by Flopy version 3.5.0.dev0 on 07/12/2024 at 09:44:05.

 OPENED H.ic
 FILE TYPE:IC6       UNIT 5652   STATUS:OLD                 
 FORMAT:FORMATTED              ACCESS:SEQUENTIAL          
 ACTION:READ                


 OPENED H.mst
 FILE TYPE:MST6      UNIT 5653   STATUS:OLD                 
 FORMAT:FORMATTED              ACCESS:SEQUENTIAL          
 ACTION:READ                


 OPENED H.adv
 FILE TYPE:ADV6      UNIT 5654   STATUS:OLD                 
 FORMAT:FORMATTED              ACCESS:SEQUENTIAL          
 ACTION:READ                


 OPENED H.dsp
 FILE TYPE:DSP6      UNIT 5655   STATUS:OLD                 
 FORMAT:FORMATTED              ACCESS:SEQUENTIAL          
 ACTION:READ                

 # File generated by Flopy version 3.5.0.dev0 on 07/12/2024 at 09:44:05.

 OPENED H.ssm
 FILE TYPE:SSM6      UNIT 5686   STATUS:OLD                 
 FORMAT:FORMATTED              ACCESS:SEQUENTIAL          
 ACTION:READ                


 OPENED H.oc
 FILE TYPE:OC6       UNIT 5687   STATUS:OLD                 
 FORMAT:FORMATTED              ACCESS:SEQUENTIAL          
 ACTION:READ                


 OPENED H.cnc
 FILE TYPE:CNC6      UNIT 5688   STATUS:OLD                 
 FORMAT:FORMATTED              ACCESS:SEQUENTIAL          
 ACTION:READ                


 OPENED O.nam
 FILE TYPE:GWT6      UNIT 5689   STATUS:OLD                 
 FORMAT:FORMATTED              ACCESS:SEQUENTIAL          
 ACTION:READ                

 # File generated by Flopy version 3.5.0.dev0 on 07/12/2024 at 09:44:05.

 OPENED O.dis
 FILE TYPE:DIS6      UNIT 5690   STATUS:OLD                 
 FORMAT:FORMATTED              ACCESS:SEQUENTIAL          
 ACTION:READ                

 # File generated by Flopy version 3.5.0.dev0 on 07/12/2024 at 09:44:05.

 OPENED O.ic
 FILE TYPE:IC6       UNIT 5714   STATUS:OLD                 
 FORMAT:FORMATTED              ACCESS:SEQUENTIAL          
 ACTION:READ                


 OPENED O.mst
 FILE TYPE:MST6      UNIT 5715   STATUS:OLD                 
 FORMAT:FORMATTED              ACCESS:SEQUENTIAL          
 ACTION:READ                


 OPENED O.adv
 FILE TYPE:ADV6      UNIT 5716   STATUS:OLD                 
 FORMAT:FORMATTED              ACCESS:SEQUENTIAL          
 ACTION:READ                


 OPENED O.dsp
 FILE TYPE:DSP6      UNIT 5717   STATUS:OLD                 
 FORMAT:FORMATTED              ACCESS:SEQUENTIAL          
 ACTION:READ                

 # File generated by Flopy version 3.5.0.dev0 on 07/12/2024 at 09:44:05.

 OPENED O.ssm
 FILE TYPE:SSM6      UNIT 5748   STATUS:OLD                 
 FORMAT:FORMATTED              ACCESS:SEQUENTIAL          
 ACTION:READ                


 OPENED O.oc
 FILE TYPE:OC6       UNIT 5749   STATUS:OLD                 
 FORMAT:FORMATTED              ACCESS:SEQUENTIAL          
 ACTION:READ                


 OPENED O.cnc
 FILE TYPE:CNC6      UNIT 5750   STATUS:OLD                 
 FORMAT:FORMATTED              ACCESS:SEQUENTIAL          
 ACTION:READ                


 OPENED Charge.nam
 FILE TYPE:GWT6      UNIT 5751   STATUS:OLD                 
 FORMAT:FORMATTED              ACCESS:SEQUENTIAL          
 ACTION:READ                

 # File generated by Flopy version 3.5.0.dev0 on 07/12/2024 at 09:44:05.

 OPENED Charge.dis
 FILE TYPE:DIS6      UNIT 5752   STATUS:OLD                 
 FORMAT:FORMATTED              ACCESS:SEQUENTIAL          
 ACTION:READ                

 # File generated by Flopy version 3.5.0.dev0 on 07/12/2024 at 09:44:05.

 OPENED Charge.ic
 FILE TYPE:IC6       UNIT 5776   STATUS:OLD                 
 FORMAT:FORMATTED              ACCESS:SEQUENTIAL          
 ACTION:READ                


 OPENED Charge.mst
 FILE TYPE:MST6      UNIT 5777   STATUS:OLD                 
 FORMAT:FORMATTED              ACCESS:SEQUENTIAL          
 ACTION:READ                


 OPENED Charge.adv
 FILE TYPE:ADV6      UNIT 5778   STATUS:OLD                 
 FORMAT:FORMATTED              ACCESS:SEQUENTIAL          
 ACTION:READ                


 OPENED Charge.dsp
 FILE TYPE:DSP6      UNIT 5779   STATUS:OLD                 
 FORMAT:FORMATTED              ACCESS:SEQUENTIAL          
 ACTION:READ                

 # File generated by Flopy version 3.5.0.dev0 on 07/12/2024 at 09:44:05.

 OPENED Charge.ssm
 FILE TYPE:SSM6      UNIT 5810   STATUS:OLD                 
 FORMAT:FORMATTED              ACCESS:SEQUENTIAL          
 ACTION:READ                


 OPENED Charge.oc
 FILE TYPE:OC6       UNIT 5811   STATUS:OLD                 
 FORMAT:FORMATTED              ACCESS:SEQUENTIAL          
 ACTION:READ                


 OPENED Charge.cnc
 FILE TYPE:CNC6      UNIT 5812   STATUS:OLD                 
 FORMAT:FORMATTED              ACCESS:SEQUENTIAL          
 ACTION:READ                


 OPENED Al.nam
 FILE TYPE:GWT6      UNIT 5813   STATUS:OLD                 
 FORMAT:FORMATTED              ACCESS:SEQUENTIAL          
 ACTION:READ                

 # File generated by Flopy version 3.5.0.dev0 on 07/12/2024 at 09:44:05.

 OPENED Al.dis
 FILE TYPE:DIS6      UNIT 5814   STATUS:OLD                 
 FORMAT:FORMATTED              ACCESS:SEQUENTIAL          
 ACTION:READ                

 # File generated by Flopy version 3.5.0.dev0 on 07/12/2024 at 09:44:05.

 OPENED Al.ic
 FILE TYPE:IC6       UNIT 5838   STATUS:OLD                 
 FORMAT:FORMATTED              ACCESS:SEQUENTIAL          
 ACTION:READ                


 OPENED Al.mst
 FILE TYPE:MST6      UNIT 5839   STATUS:OLD                 
 FORMAT:FORMATTED              ACCESS:SEQUENTIAL          
 ACTION:READ                


 OPENED Al.adv
 FILE TYPE:ADV6      UNIT 5840   STATUS:OLD                 
 FORMAT:FORMATTED              ACCESS:SEQUENTIAL          
 ACTION:READ                


 OPENED Al.dsp
 FILE TYPE:DSP6      UNIT 5841   STATUS:OLD                 
 FORMAT:FORMATTED              ACCESS:SEQUENTIAL          
 ACTION:READ                

 # File generated by Flopy version 3.5.0.dev0 on 07/12/2024 at 09:44:05.

 OPENED Al.ssm
 FILE TYPE:SSM6      UNIT 5872   STATUS:OLD                 
 FORMAT:FORMATTED              ACCESS:SEQUENTIAL          
 ACTION:READ                


 OPENED Al.oc
 FILE TYPE:OC6       UNIT 5873   STATUS:OLD                 
 FORMAT:FORMATTED              ACCESS:SEQUENTIAL          
 ACTION:READ                


 OPENED Al.cnc
 FILE TYPE:CNC6      UNIT 5874   STATUS:OLD                 
 FORMAT:FORMATTED              ACCESS:SEQUENTIAL          
 ACTION:READ                


 OPENED C.nam
 FILE TYPE:GWT6      UNIT 5875   STATUS:OLD                 
 FORMAT:FORMATTED              ACCESS:SEQUENTIAL          
 ACTION:READ                

 # File generated by Flopy version 3.5.0.dev0 on 07/12/2024 at 09:44:05.

 OPENED C.dis
 FILE TYPE:DIS6      UNIT 5876   STATUS:OLD                 
 FORMAT:FORMATTED              ACCESS:SEQUENTIAL          
 ACTION:READ                

 # File generated by Flopy version 3.5.0.dev0 on 07/12/2024 at 09:44:05.

 OPENED C.ic
 FILE TYPE:IC6       UNIT 5900   STATUS:OLD                 
 FORMAT:FORMATTED              ACCESS:SEQUENTIAL          
 ACTION:READ                


 OPENED C.mst
 FILE TYPE:MST6      UNIT 5901   STATUS:OLD                 
 FORMAT:FORMATTED              ACCESS:SEQUENTIAL          
 ACTION:READ                


 OPENED C.adv
 FILE TYPE:ADV6      UNIT 5902   STATUS:OLD                 
 FORMAT:FORMATTED              ACCESS:SEQUENTIAL          
 ACTION:READ                


 OPENED C.dsp
 FILE TYPE:DSP6      UNIT 5903   STATUS:OLD                 
 FORMAT:FORMATTED              ACCESS:SEQUENTIAL          
 ACTION:READ                

 # File generated by Flopy version 3.5.0.dev0 on 07/12/2024 at 09:44:05.

 OPENED C.ssm
 FILE TYPE:SSM6      UNIT 5934   STATUS:OLD                 
 FORMAT:FORMATTED              ACCESS:SEQUENTIAL          
 ACTION:READ                


 OPENED C.oc
 FILE TYPE:OC6       UNIT 5935   STATUS:OLD                 
 FORMAT:FORMATTED              ACCESS:SEQUENTIAL          
 ACTION:READ                


 OPENED C.cnc
 FILE TYPE:CNC6      UNIT 5936   STATUS:OLD                 
 FORMAT:FORMATTED              ACCESS:SEQUENTIAL          
 ACTION:READ                


 OPENED Ca.nam
 FILE TYPE:GWT6      UNIT 5937   STATUS:OLD                 
 FORMAT:FORMATTED              ACCESS:SEQUENTIAL          
 ACTION:READ                

 # File generated by Flopy version 3.5.0.dev0 on 07/12/2024 at 09:44:05.

 OPENED Ca.dis
 FILE TYPE:DIS6      UNIT 5938   STATUS:OLD                 
 FORMAT:FORMATTED              ACCESS:SEQUENTIAL          
 ACTION:READ                

 # File generated by Flopy version 3.5.0.dev0 on 07/12/2024 at 09:44:05.

 OPENED Ca.ic
 FILE TYPE:IC6       UNIT 5962   STATUS:OLD                 
 FORMAT:FORMATTED              ACCESS:SEQUENTIAL          
 ACTION:READ                


 OPENED Ca.mst
 FILE TYPE:MST6      UNIT 5963   STATUS:OLD                 
 FORMAT:FORMATTED              ACCESS:SEQUENTIAL          
 ACTION:READ                


 OPENED Ca.adv
 FILE TYPE:ADV6      UNIT 5964   STATUS:OLD                 
 FORMAT:FORMATTED              ACCESS:SEQUENTIAL          
 ACTION:READ                


 OPENED Ca.dsp
 FILE TYPE:DSP6      UNIT 5965   STATUS:OLD                 
 FORMAT:FORMATTED              ACCESS:SEQUENTIAL          
 ACTION:READ                

 # File generated by Flopy version 3.5.0.dev0 on 07/12/2024 at 09:44:05.

 OPENED Ca.ssm
 FILE TYPE:SSM6      UNIT 5996   STATUS:OLD                 
 FORMAT:FORMATTED              ACCESS:SEQUENTIAL          
 ACTION:READ                


 OPENED Ca.oc
 FILE TYPE:OC6       UNIT 5997   STATUS:OLD                 
 FORMAT:FORMATTED              ACCESS:SEQUENTIAL          
 ACTION:READ                


 OPENED Ca.cnc
 FILE TYPE:CNC6      UNIT 5998   STATUS:OLD                 
 FORMAT:FORMATTED              ACCESS:SEQUENTIAL          
 ACTION:READ                


 OPENED Cl.nam
 FILE TYPE:GWT6      UNIT 5999   STATUS:OLD                 
 FORMAT:FORMATTED              ACCESS:SEQUENTIAL          
 ACTION:READ                

 # File generated by Flopy version 3.5.0.dev0 on 07/12/2024 at 09:44:05.

 OPENED Cl.dis
 FILE TYPE:DIS6      UNIT 6000   STATUS:OLD                 
 FORMAT:FORMATTED              ACCESS:SEQUENTIAL          
 ACTION:READ                

 # File generated by Flopy version 3.5.0.dev0 on 07/12/2024 at 09:44:05.

 OPENED Cl.ic
 FILE TYPE:IC6       UNIT 6024   STATUS:OLD                 
 FORMAT:FORMATTED              ACCESS:SEQUENTIAL          
 ACTION:READ                


 OPENED Cl.mst
 FILE TYPE:MST6      UNIT 6025   STATUS:OLD                 
 FORMAT:FORMATTED              ACCESS:SEQUENTIAL          
 ACTION:READ                


 OPENED Cl.adv
 FILE TYPE:ADV6      UNIT 6026   STATUS:OLD                 
 FORMAT:FORMATTED              ACCESS:SEQUENTIAL          
 ACTION:READ                


 OPENED Cl.dsp
 FILE TYPE:DSP6      UNIT 6027   STATUS:OLD                 
 FORMAT:FORMATTED              ACCESS:SEQUENTIAL          
 ACTION:READ                

 # File generated by Flopy version 3.5.0.dev0 on 07/12/2024 at 09:44:05.

 OPENED Cl.ssm
 FILE TYPE:SSM6      UNIT 6058   STATUS:OLD                 
 FORMAT:FORMATTED              ACCESS:SEQUENTIAL          
 ACTION:READ                


 OPENED Cl.oc
 FILE TYPE:OC6       UNIT 6059   STATUS:OLD                 
 FORMAT:FORMATTED              ACCESS:SEQUENTIAL          
 ACTION:READ                


 OPENED Cl.cnc
 FILE TYPE:CNC6      UNIT 6060   STATUS:OLD                 
 FORMAT:FORMATTED              ACCESS:SEQUENTIAL          
 ACTION:READ                


 OPENED Fe.nam
 FILE TYPE:GWT6      UNIT 6061   STATUS:OLD                 
 FORMAT:FORMATTED              ACCESS:SEQUENTIAL          
 ACTION:READ                

 # File generated by Flopy version 3.5.0.dev0 on 07/12/2024 at 09:44:05.

 OPENED Fe.dis
 FILE TYPE:DIS6      UNIT 6062   STATUS:OLD                 
 FORMAT:FORMATTED              ACCESS:SEQUENTIAL          
 ACTION:READ                

 # File generated by Flopy version 3.5.0.dev0 on 07/12/2024 at 09:44:05.

 OPENED Fe.ic
 FILE TYPE:IC6       UNIT 6086   STATUS:OLD                 
 FORMAT:FORMATTED              ACCESS:SEQUENTIAL          
 ACTION:READ                


 OPENED Fe.mst
 FILE TYPE:MST6      UNIT 6087   STATUS:OLD                 
 FORMAT:FORMATTED              ACCESS:SEQUENTIAL          
 ACTION:READ                


 OPENED Fe.adv
 FILE TYPE:ADV6      UNIT 6088   STATUS:OLD                 
 FORMAT:FORMATTED              ACCESS:SEQUENTIAL          
 ACTION:READ                


 OPENED Fe.dsp
 FILE TYPE:DSP6      UNIT 6089   STATUS:OLD                 
 FORMAT:FORMATTED              ACCESS:SEQUENTIAL          
 ACTION:READ                

 # File generated by Flopy version 3.5.0.dev0 on 07/12/2024 at 09:44:05.

 OPENED Fe.ssm
 FILE TYPE:SSM6      UNIT 6120   STATUS:OLD                 
 FORMAT:FORMATTED              ACCESS:SEQUENTIAL          
 ACTION:READ                


 OPENED Fe.oc
 FILE TYPE:OC6       UNIT 6121   STATUS:OLD                 
 FORMAT:FORMATTED              ACCESS:SEQUENTIAL          
 ACTION:READ                


 OPENED Fe.cnc
 FILE TYPE:CNC6      UNIT 6122   STATUS:OLD                 
 FORMAT:FORMATTED              ACCESS:SEQUENTIAL          
 ACTION:READ                


 OPENED K.nam
 FILE TYPE:GWT6      UNIT 6123   STATUS:OLD                 
 FORMAT:FORMATTED              ACCESS:SEQUENTIAL          
 ACTION:READ                

 # File generated by Flopy version 3.5.0.dev0 on 07/12/2024 at 09:44:05.

 OPENED K.dis
 FILE TYPE:DIS6      UNIT 6124   STATUS:OLD                 
 FORMAT:FORMATTED              ACCESS:SEQUENTIAL          
 ACTION:READ                

 # File generated by Flopy version 3.5.0.dev0 on 07/12/2024 at 09:44:05.

 OPENED K.ic
 FILE TYPE:IC6       UNIT 6148   STATUS:OLD                 
 FORMAT:FORMATTED              ACCESS:SEQUENTIAL          
 ACTION:READ                


 OPENED K.mst
 FILE TYPE:MST6      UNIT 6149   STATUS:OLD                 
 FORMAT:FORMATTED              ACCESS:SEQUENTIAL          
 ACTION:READ                


 OPENED K.adv
 FILE TYPE:ADV6      UNIT 6150   STATUS:OLD                 
 FORMAT:FORMATTED              ACCESS:SEQUENTIAL          
 ACTION:READ                


 OPENED K.dsp
 FILE TYPE:DSP6      UNIT 6151   STATUS:OLD                 
 FORMAT:FORMATTED              ACCESS:SEQUENTIAL          
 ACTION:READ                

 # File generated by Flopy version 3.5.0.dev0 on 07/12/2024 at 09:44:05.

 OPENED K.ssm
 FILE TYPE:SSM6      UNIT 6182   STATUS:OLD                 
 FORMAT:FORMATTED              ACCESS:SEQUENTIAL          
 ACTION:READ                


 OPENED K.oc
 FILE TYPE:OC6       UNIT 6183   STATUS:OLD                 
 FORMAT:FORMATTED              ACCESS:SEQUENTIAL          
 ACTION:READ                


 OPENED K.cnc
 FILE TYPE:CNC6      UNIT 6184   STATUS:OLD                 
 FORMAT:FORMATTED              ACCESS:SEQUENTIAL          
 ACTION:READ                


 OPENED Mg.nam
 FILE TYPE:GWT6      UNIT 6185   STATUS:OLD                 
 FORMAT:FORMATTED              ACCESS:SEQUENTIAL          
 ACTION:READ                

 # File generated by Flopy version 3.5.0.dev0 on 07/12/2024 at 09:44:05.

 OPENED Mg.dis
 FILE TYPE:DIS6      UNIT 6186   STATUS:OLD                 
 FORMAT:FORMATTED              ACCESS:SEQUENTIAL          
 ACTION:READ                

 # File generated by Flopy version 3.5.0.dev0 on 07/12/2024 at 09:44:05.

 OPENED Mg.ic
 FILE TYPE:IC6       UNIT 6210   STATUS:OLD                 
 FORMAT:FORMATTED              ACCESS:SEQUENTIAL          
 ACTION:READ                


 OPENED Mg.mst
 FILE TYPE:MST6      UNIT 6211   STATUS:OLD                 
 FORMAT:FORMATTED              ACCESS:SEQUENTIAL          
 ACTION:READ                


 OPENED Mg.adv
 FILE TYPE:ADV6      UNIT 6212   STATUS:OLD                 
 FORMAT:FORMATTED              ACCESS:SEQUENTIAL          
 ACTION:READ                


 OPENED Mg.dsp
 FILE TYPE:DSP6      UNIT 6213   STATUS:OLD                 
 FORMAT:FORMATTED              ACCESS:SEQUENTIAL          
 ACTION:READ                

 # File generated by Flopy version 3.5.0.dev0 on 07/12/2024 at 09:44:05.

 OPENED Mg.ssm
 FILE TYPE:SSM6      UNIT 6244   STATUS:OLD                 
 FORMAT:FORMATTED              ACCESS:SEQUENTIAL          
 ACTION:READ                


 OPENED Mg.oc
 FILE TYPE:OC6       UNIT 6245   STATUS:OLD                 
 FORMAT:FORMATTED              ACCESS:SEQUENTIAL          
 ACTION:READ                


 OPENED Mg.cnc
 FILE TYPE:CNC6      UNIT 6246   STATUS:OLD                 
 FORMAT:FORMATTED              ACCESS:SEQUENTIAL          
 ACTION:READ                


 OPENED Mn.nam
 FILE TYPE:GWT6      UNIT 6247   STATUS:OLD                 
 FORMAT:FORMATTED              ACCESS:SEQUENTIAL          
 ACTION:READ                

 # File generated by Flopy version 3.5.0.dev0 on 07/12/2024 at 09:44:05.

 OPENED Mn.dis
 FILE TYPE:DIS6      UNIT 6248   STATUS:OLD                 
 FORMAT:FORMATTED              ACCESS:SEQUENTIAL          
 ACTION:READ                

 # File generated by Flopy version 3.5.0.dev0 on 07/12/2024 at 09:44:05.

 OPENED Mn.ic
 FILE TYPE:IC6       UNIT 6272   STATUS:OLD                 
 FORMAT:FORMATTED              ACCESS:SEQUENTIAL          
 ACTION:READ                


 OPENED Mn.mst
 FILE TYPE:MST6      UNIT 6273   STATUS:OLD                 
 FORMAT:FORMATTED              ACCESS:SEQUENTIAL          
 ACTION:READ                


 OPENED Mn.adv
 FILE TYPE:ADV6      UNIT 6274   STATUS:OLD                 
 FORMAT:FORMATTED              ACCESS:SEQUENTIAL          
 ACTION:READ                


 OPENED Mn.dsp
 FILE TYPE:DSP6      UNIT 6275   STATUS:OLD                 
 FORMAT:FORMATTED              ACCESS:SEQUENTIAL          
 ACTION:READ                

 # File generated by Flopy version 3.5.0.dev0 on 07/12/2024 at 09:44:05.

 OPENED Mn.ssm
 FILE TYPE:SSM6      UNIT 6306   STATUS:OLD                 
 FORMAT:FORMATTED              ACCESS:SEQUENTIAL          
 ACTION:READ                


 OPENED Mn.oc
 FILE TYPE:OC6       UNIT 6307   STATUS:OLD                 
 FORMAT:FORMATTED              ACCESS:SEQUENTIAL          
 ACTION:READ                


 OPENED Mn.cnc
 FILE TYPE:CNC6      UNIT 6308   STATUS:OLD                 
 FORMAT:FORMATTED              ACCESS:SEQUENTIAL          
 ACTION:READ                


 OPENED Na.nam
 FILE TYPE:GWT6      UNIT 6309   STATUS:OLD                 
 FORMAT:FORMATTED              ACCESS:SEQUENTIAL          
 ACTION:READ                

 # File generated by Flopy version 3.5.0.dev0 on 07/12/2024 at 09:44:05.

 OPENED Na.dis
 FILE TYPE:DIS6      UNIT 6310   STATUS:OLD                 
 FORMAT:FORMATTED              ACCESS:SEQUENTIAL          
 ACTION:READ                

 # File generated by Flopy version 3.5.0.dev0 on 07/12/2024 at 09:44:05.

 OPENED Na.ic
 FILE TYPE:IC6       UNIT 6334   STATUS:OLD                 
 FORMAT:FORMATTED              ACCESS:SEQUENTIAL          
 ACTION:READ                


 OPENED Na.mst
 FILE TYPE:MST6      UNIT 6335   STATUS:OLD                 
 FORMAT:FORMATTED              ACCESS:SEQUENTIAL          
 ACTION:READ                


 OPENED Na.adv
 FILE TYPE:ADV6      UNIT 6336   STATUS:OLD                 
 FORMAT:FORMATTED              ACCESS:SEQUENTIAL          
 ACTION:READ                


 OPENED Na.dsp
 FILE TYPE:DSP6      UNIT 6337   STATUS:OLD                 
 FORMAT:FORMATTED              ACCESS:SEQUENTIAL          
 ACTION:READ                

 # File generated by Flopy version 3.5.0.dev0 on 07/12/2024 at 09:44:05.

 OPENED Na.ssm
 FILE TYPE:SSM6      UNIT 6368   STATUS:OLD                 
 FORMAT:FORMATTED              ACCESS:SEQUENTIAL          
 ACTION:READ                


 OPENED Na.oc
 FILE TYPE:OC6       UNIT 6369   STATUS:OLD                 
 FORMAT:FORMATTED              ACCESS:SEQUENTIAL          
 ACTION:READ                


 OPENED Na.cnc
 FILE TYPE:CNC6      UNIT 6370   STATUS:OLD                 
 FORMAT:FORMATTED              ACCESS:SEQUENTIAL          
 ACTION:READ                


 OPENED S.nam
 FILE TYPE:GWT6      UNIT 6371   STATUS:OLD                 
 FORMAT:FORMATTED              ACCESS:SEQUENTIAL          
 ACTION:READ                

 # File generated by Flopy version 3.5.0.dev0 on 07/12/2024 at 09:44:05.

 OPENED S.dis
 FILE TYPE:DIS6      UNIT 6372   STATUS:OLD                 
 FORMAT:FORMATTED              ACCESS:SEQUENTIAL          
 ACTION:READ                

 # File generated by Flopy version 3.5.0.dev0 on 07/12/2024 at 09:44:05.

 OPENED S.ic
 FILE TYPE:IC6       UNIT 6396   STATUS:OLD                 
 FORMAT:FORMATTED              ACCESS:SEQUENTIAL          
 ACTION:READ                


 OPENED S.mst
 FILE TYPE:MST6      UNIT 6397   STATUS:OLD                 
 FORMAT:FORMATTED              ACCESS:SEQUENTIAL          
 ACTION:READ                


 OPENED S.adv
 FILE TYPE:ADV6      UNIT 6398   STATUS:OLD                 
 FORMAT:FORMATTED              ACCESS:SEQUENTIAL          
 ACTION:READ                


 OPENED S.dsp
 FILE TYPE:DSP6      UNIT 6399   STATUS:OLD                 
 FORMAT:FORMATTED              ACCESS:SEQUENTIAL          
 ACTION:READ                

 # File generated by Flopy version 3.5.0.dev0 on 07/12/2024 at 09:44:05.

 OPENED S.ssm
 FILE TYPE:SSM6      UNIT 6430   STATUS:OLD                 
 FORMAT:FORMATTED              ACCESS:SEQUENTIAL          
 ACTION:READ                


 OPENED S.oc
 FILE TYPE:OC6       UNIT 6431   STATUS:OLD                 
 FORMAT:FORMATTED              ACCESS:SEQUENTIAL          
 ACTION:READ                


 OPENED S.cnc
 FILE TYPE:CNC6      UNIT 6432   STATUS:OLD                 
 FORMAT:FORMATTED              ACCESS:SEQUENTIAL          
 ACTION:READ                


 OPENED Si.nam
 FILE TYPE:GWT6      UNIT 6433   STATUS:OLD                 
 FORMAT:FORMATTED              ACCESS:SEQUENTIAL          
 ACTION:READ                

 # File generated by Flopy version 3.5.0.dev0 on 07/12/2024 at 09:44:05.

 OPENED Si.dis
 FILE TYPE:DIS6      UNIT 6434   STATUS:OLD                 
 FORMAT:FORMATTED              ACCESS:SEQUENTIAL          
 ACTION:READ                

 # File generated by Flopy version 3.5.0.dev0 on 07/12/2024 at 09:44:05.

 OPENED Si.ic
 FILE TYPE:IC6       UNIT 6458   STATUS:OLD                 
 FORMAT:FORMATTED              ACCESS:SEQUENTIAL          
 ACTION:READ                


 OPENED Si.mst
 FILE TYPE:MST6      UNIT 6459   STATUS:OLD                 
 FORMAT:FORMATTED              ACCESS:SEQUENTIAL          
 ACTION:READ                


 OPENED Si.adv
 FILE TYPE:ADV6      UNIT 6460   STATUS:OLD                 
 FORMAT:FORMATTED              ACCESS:SEQUENTIAL          
 ACTION:READ                


 OPENED Si.dsp
 FILE TYPE:DSP6      UNIT 6461   STATUS:OLD                 
 FORMAT:FORMATTED              ACCESS:SEQUENTIAL          
 ACTION:READ                

 # File generated by Flopy version 3.5.0.dev0 on 07/12/2024 at 09:44:05.

 OPENED Si.ssm
 FILE TYPE:SSM6      UNIT 6492   STATUS:OLD                 
 FORMAT:FORMATTED              ACCESS:SEQUENTIAL          
 ACTION:READ                


 OPENED Si.oc
 FILE TYPE:OC6       UNIT 6493   STATUS:OLD                 
 FORMAT:FORMATTED              ACCESS:SEQUENTIAL          
 ACTION:READ                


 OPENED Si.cnc
 FILE TYPE:CNC6      UNIT 6494   STATUS:OLD                 
 FORMAT:FORMATTED              ACCESS:SEQUENTIAL          
 ACTION:READ                


 READING SIMULATION OPTIONS
    MAXIMUM NUMBER OF ERRORS THAT WILL BE STORED IS 1000
 END OF SIMULATION OPTIONS

 READING SIMULATION TIMING

 OPENED walter1994.tdis
 FILE TYPE:TDIS   UNIT 6495   STATUS:OLD                 
 FORMAT:FORMATTED              ACCESS:SEQUENTIAL          
 ACTION:READ                


 TDIS -- TEMPORAL DISCRETIZATION PACKAGE,
 VERSION 1 : 11/13/2014 - INPUT READ FROM UNIT 6495
 # File generated by Flopy version 3.5.0.dev0 on 07/12/2024 at 09:44:05.
 PROCESSING TDIS OPTIONS
    SIMULATION TIME UNIT IS DAYS
 END OF TDIS OPTIONS
 PROCESSING TDIS DIMENSIONS
    1 STRESS PERIOD(S) IN SIMULATION
 END OF TDIS DIMENSIONS
 PROCESSING TDIS PERIODDATA


 STRESS PERIOD     LENGTH       TIME STEPS     MULTIPLIER FOR DELT
 ----------------------------------------------------------------------------
        1         2000.000        200                    1.000
 END OF TDIS PERIODDATA
 END OF SIMULATION TIMING

 READING SIMULATION MODELS
    GWF6 model 1 will be created
    GWT6 model 2 will be created
    GWT6 model 3 will be created
    GWT6 model 4 will be created
    GWT6 model 5 will be created
    GWT6 model 6 will be created
    GWT6 model 7 will be created
    GWT6 model 8 will be created
    GWT6 model 9 will be created
    GWT6 model 10 will be created
    GWT6 model 11 will be created
    GWT6 model 12 will be created
    GWT6 model 13 will be created
    GWT6 model 14 will be created
    GWT6 model 15 will be created
 END OF SIMULATION MODELS

 READING SIMULATION EXCHANGES
    GWF6-GWT6 exchange 1 will be created to connect model 1 with model 2
    GWF6-GWT6 exchange 2 will be created to connect model 1 with model 3
    GWF6-GWT6 exchange 3 will be created to connect model 1 with model 4
    GWF6-GWT6 exchange 4 will be created to connect model 1 with model 5
    GWF6-GWT6 exchange 5 will be created to connect model 1 with model 6
    GWF6-GWT6 exchange 6 will be created to connect model 1 with model 7
    GWF6-GWT6 exchange 7 will be created to connect model 1 with model 8
    GWF6-GWT6 exchange 8 will be created to connect model 1 with model 9
    GWF6-GWT6 exchange 9 will be created to connect model 1 with model 10
    GWF6-GWT6 exchange 10 will be created to connect model 1 with model 11
    GWF6-GWT6 exchange 11 will be created to connect model 1 with model 12
    GWF6-GWT6 exchange 12 will be created to connect model 1 with model 13
    GWF6-GWT6 exchange 13 will be created to connect model 1 with model 14
    GWF6-GWT6 exchange 14 will be created to connect model 1 with model 15
 END OF SIMULATION EXCHANGES

 READING SOLUTIONGROUP

 Creating solution: SLN_1           

 OPENED gwf.ims
 FILE TYPE:IMS   UNIT 6511   STATUS:OLD                 
 FORMAT:FORMATTED              ACCESS:SEQUENTIAL          
 ACTION:READ                


 Creating solution: SLN_2           

 OPENED H.ims
 FILE TYPE:IMS   UNIT 6512   STATUS:OLD                 
 FORMAT:FORMATTED              ACCESS:SEQUENTIAL          
 ACTION:READ                


 Creating solution: SLN_3           

 OPENED O.ims
 FILE TYPE:IMS   UNIT 6513   STATUS:OLD                 
 FORMAT:FORMATTED              ACCESS:SEQUENTIAL          
 ACTION:READ                


 Creating solution: SLN_4           

 OPENED Charge.ims
 FILE TYPE:IMS   UNIT 6514   STATUS:OLD                 
 FORMAT:FORMATTED              ACCESS:SEQUENTIAL          
 ACTION:READ                


 Creating solution: SLN_5           

 OPENED Al.ims
 FILE TYPE:IMS   UNIT 6515   STATUS:OLD                 
 FORMAT:FORMATTED              ACCESS:SEQUENTIAL          
 ACTION:READ                


 Creating solution: SLN_6           

 OPENED C.ims
 FILE TYPE:IMS   UNIT 6516   STATUS:OLD                 
 FORMAT:FORMATTED              ACCESS:SEQUENTIAL          
 ACTION:READ                


 Creating solution: SLN_7           

 OPENED Ca.ims
 FILE TYPE:IMS   UNIT 6517   STATUS:OLD                 
 FORMAT:FORMATTED              ACCESS:SEQUENTIAL          
 ACTION:READ                


 Creating solution: SLN_8           

 OPENED Cl.ims
 FILE TYPE:IMS   UNIT 6518   STATUS:OLD                 
 FORMAT:FORMATTED              ACCESS:SEQUENTIAL          
 ACTION:READ                


 Creating solution: SLN_9           

 OPENED Fe.ims
 FILE TYPE:IMS   UNIT 6519   STATUS:OLD                 
 FORMAT:FORMATTED              ACCESS:SEQUENTIAL          
 ACTION:READ                


 Creating solution: SLN_10          

 OPENED K.ims
 FILE TYPE:IMS   UNIT 6520   STATUS:OLD                 
 FORMAT:FORMATTED              ACCESS:SEQUENTIAL          
 ACTION:READ                


 Creating solution: SLN_11          

 OPENED Mg.ims
 FILE TYPE:IMS   UNIT 6521   STATUS:OLD                 
 FORMAT:FORMATTED              ACCESS:SEQUENTIAL          
 ACTION:READ                


 Creating solution: SLN_12          

 OPENED Mn.ims
 FILE TYPE:IMS   UNIT 6522   STATUS:OLD                 
 FORMAT:FORMATTED              ACCESS:SEQUENTIAL          
 ACTION:READ                


 Creating solution: SLN_13          

 OPENED Na.ims
 FILE TYPE:IMS   UNIT 6523   STATUS:OLD                 
 FORMAT:FORMATTED              ACCESS:SEQUENTIAL          
 ACTION:READ                


 Creating solution: SLN_14          

 OPENED S.ims
 FILE TYPE:IMS   UNIT 6524   STATUS:OLD                 
 FORMAT:FORMATTED              ACCESS:SEQUENTIAL          
 ACTION:READ                


 Creating solution: SLN_15          

 OPENED Si.ims
 FILE TYPE:IMS   UNIT 6525   STATUS:OLD                 
 FORMAT:FORMATTED              ACCESS:SEQUENTIAL          
 ACTION:READ                

 END OF SOLUTIONGROUP

PROCESSING MODEL CONNECTIONS
END OF MODEL CONNECTIONS

 OPENED gwf.chd_stress_period_data_1.txt
 FILE TYPE:OPEN/CLOSE   UNIT 6526   STATUS:OLD                 
 FORMAT:FORMATTED              ACCESS:SEQUENTIAL          
 ACTION:READ                


 IMS -- ITERATIVE MODEL SOLUTION PACKAGE, VERSION 6, 4/28/2017
         INPUT READ FROM UNIT 6511
 # File generated by Flopy version 3.5.0.dev0 on 07/12/2024 at 09:44:05.

 PROCESSING IMS OPTIONS
 COMPLEX OPTION:
 DEFAULT SOLVER INPUT VALUES REFLECT STRONGLY NONLINEAR MODEL
 END OF IMS OPTIONS

 PROCESSING IMS NONLINEAR
 END OF IMS NONLINEAR DATA
 ***UNDER-RELAXATION WILL NOT BE USED***
 

 PROCESSING LINEAR DATA
 END OF LINEAR DATA
 ***IMS LINEAR SOLVER WILL BE USED***

 IMSLINEAR -- UNSTRUCTURED LINEAR SOLUTION PACKAGE, VERSION 8, 04/28/2017
 A symmetric matrix will be solved

 OUTER ITERATION CONVERGENCE CRITERION    (DVCLOSE) =    0.100000E-05
 MAXIMUM NUMBER OF OUTER ITERATIONS        (MXITER) = 300
 SOLVER PRINTOUT INDEX                     (IPRIMS) = 1
 NONLINEAR ITERATION METHOD            (NONLINMETH) = 0
 LINEAR SOLUTION METHOD                   (LINMETH) = 1
 MAXIMUM NUMBER OF BACKTRACKS            (NUMTRACK) = 20
 BACKTRACKING TOLERANCE FACTOR               (BTOL) =    0.105000E+01
 BACKTRACKING REDUCTION FACTOR             (BREDUC) =    0.100000E+00
 BACKTRACKING RESIDUAL LIMIT              (RES_LIM) =    0.200000E-02

       SOLUTION BY THE        CONJUGATE-GRADIENT       METHOD
 ------------------------------------------------------------------
 MAXIMUM OF 300 CALLS OF SOLUTION ROUTINE
 MAXIMUM OF 600 INTERNAL ITERATIONS PER CALL TO SOLUTION ROUTINE
 LINEAR ACCELERATION METHOD            = CG        
 MATRIX PRECONDITIONING TYPE           = MOD. INCOMPLETE LUT 
 MATRIX SCALING APPROACH               = NO SCALING          
 MATRIX REORDERING APPROACH            = ORIGINAL ORDERING        
 NUMBER OF ORTHOGONALIZATIONS          = 2
 HEAD CHANGE CRITERION FOR CLOSURE     =    0.10000E-05
 RESIDUAL CHANGE CRITERION FOR CLOSURE =    0.10000E-05
 RESIDUAL CONVERGENCE OPTION           = 0
 RESIDUAL CONVERGENCE NORM             = INFINITY NORM   
 RELAXATION FACTOR                     =    0.10000E+01
 NUMBER OF LEVELS                      =              5
 DROP TOLERANCE                        =    0.10000E-03



 IMS -- ITERATIVE MODEL SOLUTION PACKAGE, VERSION 6, 4/28/2017
         INPUT READ FROM UNIT 6512
 # File generated by Flopy version 3.5.0.dev0 on 07/12/2024 at 09:44:05.

 PROCESSING IMS OPTIONS
 END OF IMS OPTIONS

 PROCESSING IMS NONLINEAR
 END OF IMS NONLINEAR DATA
 ***UNDER-RELAXATION WILL NOT BE USED***
 

 PROCESSING LINEAR DATA
 END OF LINEAR DATA
 ***IMS LINEAR SOLVER WILL BE USED***

 IMSLINEAR -- UNSTRUCTURED LINEAR SOLUTION PACKAGE, VERSION 8, 04/28/2017
 An asymmetric matrix will be solved

 OUTER ITERATION CONVERGENCE CRITERION    (DVCLOSE) =    0.100000E-05
 MAXIMUM NUMBER OF OUTER ITERATIONS        (MXITER) = 300
 SOLVER PRINTOUT INDEX                     (IPRIMS) = 1
 NONLINEAR ITERATION METHOD            (NONLINMETH) = 0
 LINEAR SOLUTION METHOD                   (LINMETH) = 1

       SOLUTION BY THE BICONJUGATE-GRADIENT STABILIZED METHOD
 ------------------------------------------------------------------
 MAXIMUM OF 300 CALLS OF SOLUTION ROUTINE
 MAXIMUM OF 600 INTERNAL ITERATIONS PER CALL TO SOLUTION ROUTINE
 LINEAR ACCELERATION METHOD            = BCGS      
 MATRIX PRECONDITIONING TYPE           = MOD. INCOMPLETE LU  
 MATRIX SCALING APPROACH               = NO SCALING          
 MATRIX REORDERING APPROACH            = ORIGINAL ORDERING        
 NUMBER OF ORTHOGONALIZATIONS          = 0
 HEAD CHANGE CRITERION FOR CLOSURE     =    0.10000E-05
 RESIDUAL CHANGE CRITERION FOR CLOSURE =    0.10000E-05
 RESIDUAL CONVERGENCE OPTION           = 0
 RESIDUAL CONVERGENCE NORM             = INFINITY NORM   
 RELAXATION FACTOR                     =    0.10000E+01




 IMS -- ITERATIVE MODEL SOLUTION PACKAGE, VERSION 6, 4/28/2017
         INPUT READ FROM UNIT 6513
 # File generated by Flopy version 3.5.0.dev0 on 07/12/2024 at 09:44:05.

 PROCESSING IMS OPTIONS
 END OF IMS OPTIONS

 PROCESSING IMS NONLINEAR
 END OF IMS NONLINEAR DATA
 ***UNDER-RELAXATION WILL NOT BE USED***
 

 PROCESSING LINEAR DATA
 END OF LINEAR DATA
 ***IMS LINEAR SOLVER WILL BE USED***

 IMSLINEAR -- UNSTRUCTURED LINEAR SOLUTION PACKAGE, VERSION 8, 04/28/2017
 An asymmetric matrix will be solved

 OUTER ITERATION CONVERGENCE CRITERION    (DVCLOSE) =    0.100000E-05
 MAXIMUM NUMBER OF OUTER ITERATIONS        (MXITER) = 300
 SOLVER PRINTOUT INDEX                     (IPRIMS) = 1
 NONLINEAR ITERATION METHOD            (NONLINMETH) = 0
 LINEAR SOLUTION METHOD                   (LINMETH) = 1

       SOLUTION BY THE BICONJUGATE-GRADIENT STABILIZED METHOD
 ------------------------------------------------------------------
 MAXIMUM OF 300 CALLS OF SOLUTION ROUTINE
 MAXIMUM OF 600 INTERNAL ITERATIONS PER CALL TO SOLUTION ROUTINE
 LINEAR ACCELERATION METHOD            = BCGS      
 MATRIX PRECONDITIONING TYPE           = MOD. INCOMPLETE LU  
 MATRIX SCALING APPROACH               = NO SCALING          
 MATRIX REORDERING APPROACH            = ORIGINAL ORDERING        
 NUMBER OF ORTHOGONALIZATIONS          = 0
 HEAD CHANGE CRITERION FOR CLOSURE     =    0.10000E-05
 RESIDUAL CHANGE CRITERION FOR CLOSURE =    0.10000E-05
 RESIDUAL CONVERGENCE OPTION           = 0
 RESIDUAL CONVERGENCE NORM             = INFINITY NORM   
 RELAXATION FACTOR                     =    0.10000E+01




 IMS -- ITERATIVE MODEL SOLUTION PACKAGE, VERSION 6, 4/28/2017
         INPUT READ FROM UNIT 6514
 # File generated by Flopy version 3.5.0.dev0 on 07/12/2024 at 09:44:05.

 PROCESSING IMS OPTIONS
 END OF IMS OPTIONS

 PROCESSING IMS NONLINEAR
 END OF IMS NONLINEAR DATA
 ***UNDER-RELAXATION WILL NOT BE USED***
 

 PROCESSING LINEAR DATA
 END OF LINEAR DATA
 ***IMS LINEAR SOLVER WILL BE USED***

 IMSLINEAR -- UNSTRUCTURED LINEAR SOLUTION PACKAGE, VERSION 8, 04/28/2017
 An asymmetric matrix will be solved

 OUTER ITERATION CONVERGENCE CRITERION    (DVCLOSE) =    0.100000E-05
 MAXIMUM NUMBER OF OUTER ITERATIONS        (MXITER) = 300
 SOLVER PRINTOUT INDEX                     (IPRIMS) = 1
 NONLINEAR ITERATION METHOD            (NONLINMETH) = 0
 LINEAR SOLUTION METHOD                   (LINMETH) = 1

       SOLUTION BY THE BICONJUGATE-GRADIENT STABILIZED METHOD
 ------------------------------------------------------------------
 MAXIMUM OF 300 CALLS OF SOLUTION ROUTINE
 MAXIMUM OF 600 INTERNAL ITERATIONS PER CALL TO SOLUTION ROUTINE
 LINEAR ACCELERATION METHOD            = BCGS      
 MATRIX PRECONDITIONING TYPE           = MOD. INCOMPLETE LU  
 MATRIX SCALING APPROACH               = NO SCALING          
 MATRIX REORDERING APPROACH            = ORIGINAL ORDERING        
 NUMBER OF ORTHOGONALIZATIONS          = 0
 HEAD CHANGE CRITERION FOR CLOSURE     =    0.10000E-05
 RESIDUAL CHANGE CRITERION FOR CLOSURE =    0.10000E-05
 RESIDUAL CONVERGENCE OPTION           = 0
 RESIDUAL CONVERGENCE NORM             = INFINITY NORM   
 RELAXATION FACTOR                     =    0.10000E+01




 IMS -- ITERATIVE MODEL SOLUTION PACKAGE, VERSION 6, 4/28/2017
         INPUT READ FROM UNIT 6515
 # File generated by Flopy version 3.5.0.dev0 on 07/12/2024 at 09:44:05.

 PROCESSING IMS OPTIONS
 END OF IMS OPTIONS

 PROCESSING IMS NONLINEAR
 END OF IMS NONLINEAR DATA
 ***UNDER-RELAXATION WILL NOT BE USED***
 

 PROCESSING LINEAR DATA
 END OF LINEAR DATA
 ***IMS LINEAR SOLVER WILL BE USED***

 IMSLINEAR -- UNSTRUCTURED LINEAR SOLUTION PACKAGE, VERSION 8, 04/28/2017
 An asymmetric matrix will be solved

 OUTER ITERATION CONVERGENCE CRITERION    (DVCLOSE) =    0.100000E-05
 MAXIMUM NUMBER OF OUTER ITERATIONS        (MXITER) = 300
 SOLVER PRINTOUT INDEX                     (IPRIMS) = 1
 NONLINEAR ITERATION METHOD            (NONLINMETH) = 0
 LINEAR SOLUTION METHOD                   (LINMETH) = 1

       SOLUTION BY THE BICONJUGATE-GRADIENT STABILIZED METHOD
 ------------------------------------------------------------------
 MAXIMUM OF 300 CALLS OF SOLUTION ROUTINE
 MAXIMUM OF 600 INTERNAL ITERATIONS PER CALL TO SOLUTION ROUTINE
 LINEAR ACCELERATION METHOD            = BCGS      
 MATRIX PRECONDITIONING TYPE           = MOD. INCOMPLETE LU  
 MATRIX SCALING APPROACH               = NO SCALING          
 MATRIX REORDERING APPROACH            = ORIGINAL ORDERING        
 NUMBER OF ORTHOGONALIZATIONS          = 0
 HEAD CHANGE CRITERION FOR CLOSURE     =    0.10000E-05
 RESIDUAL CHANGE CRITERION FOR CLOSURE =    0.10000E-05
 RESIDUAL CONVERGENCE OPTION           = 0
 RESIDUAL CONVERGENCE NORM             = INFINITY NORM   
 RELAXATION FACTOR                     =    0.10000E+01




 IMS -- ITERATIVE MODEL SOLUTION PACKAGE, VERSION 6, 4/28/2017
         INPUT READ FROM UNIT 6516
 # File generated by Flopy version 3.5.0.dev0 on 07/12/2024 at 09:44:05.

 PROCESSING IMS OPTIONS
 END OF IMS OPTIONS

 PROCESSING IMS NONLINEAR
 END OF IMS NONLINEAR DATA
 ***UNDER-RELAXATION WILL NOT BE USED***
 

 PROCESSING LINEAR DATA
 END OF LINEAR DATA
 ***IMS LINEAR SOLVER WILL BE USED***

 IMSLINEAR -- UNSTRUCTURED LINEAR SOLUTION PACKAGE, VERSION 8, 04/28/2017
 An asymmetric matrix will be solved

 OUTER ITERATION CONVERGENCE CRITERION    (DVCLOSE) =    0.100000E-05
 MAXIMUM NUMBER OF OUTER ITERATIONS        (MXITER) = 300
 SOLVER PRINTOUT INDEX                     (IPRIMS) = 1
 NONLINEAR ITERATION METHOD            (NONLINMETH) = 0
 LINEAR SOLUTION METHOD                   (LINMETH) = 1

       SOLUTION BY THE BICONJUGATE-GRADIENT STABILIZED METHOD
 ------------------------------------------------------------------
 MAXIMUM OF 300 CALLS OF SOLUTION ROUTINE
 MAXIMUM OF 600 INTERNAL ITERATIONS PER CALL TO SOLUTION ROUTINE
 LINEAR ACCELERATION METHOD            = BCGS      
 MATRIX PRECONDITIONING TYPE           = MOD. INCOMPLETE LU  
 MATRIX SCALING APPROACH               = NO SCALING          
 MATRIX REORDERING APPROACH            = ORIGINAL ORDERING        
 NUMBER OF ORTHOGONALIZATIONS          = 0
 HEAD CHANGE CRITERION FOR CLOSURE     =    0.10000E-05
 RESIDUAL CHANGE CRITERION FOR CLOSURE =    0.10000E-05
 RESIDUAL CONVERGENCE OPTION           = 0
 RESIDUAL CONVERGENCE NORM             = INFINITY NORM   
 RELAXATION FACTOR                     =    0.10000E+01




 IMS -- ITERATIVE MODEL SOLUTION PACKAGE, VERSION 6, 4/28/2017
         INPUT READ FROM UNIT 6517
 # File generated by Flopy version 3.5.0.dev0 on 07/12/2024 at 09:44:05.

 PROCESSING IMS OPTIONS
 END OF IMS OPTIONS

 PROCESSING IMS NONLINEAR
 END OF IMS NONLINEAR DATA
 ***UNDER-RELAXATION WILL NOT BE USED***
 

 PROCESSING LINEAR DATA
 END OF LINEAR DATA
 ***IMS LINEAR SOLVER WILL BE USED***

 IMSLINEAR -- UNSTRUCTURED LINEAR SOLUTION PACKAGE, VERSION 8, 04/28/2017
 An asymmetric matrix will be solved

 OUTER ITERATION CONVERGENCE CRITERION    (DVCLOSE) =    0.100000E-05
 MAXIMUM NUMBER OF OUTER ITERATIONS        (MXITER) = 300
 SOLVER PRINTOUT INDEX                     (IPRIMS) = 1
 NONLINEAR ITERATION METHOD            (NONLINMETH) = 0
 LINEAR SOLUTION METHOD                   (LINMETH) = 1

       SOLUTION BY THE BICONJUGATE-GRADIENT STABILIZED METHOD
 ------------------------------------------------------------------
 MAXIMUM OF 300 CALLS OF SOLUTION ROUTINE
 MAXIMUM OF 600 INTERNAL ITERATIONS PER CALL TO SOLUTION ROUTINE
 LINEAR ACCELERATION METHOD            = BCGS      
 MATRIX PRECONDITIONING TYPE           = MOD. INCOMPLETE LU  
 MATRIX SCALING APPROACH               = NO SCALING          
 MATRIX REORDERING APPROACH            = ORIGINAL ORDERING        
 NUMBER OF ORTHOGONALIZATIONS          = 0
 HEAD CHANGE CRITERION FOR CLOSURE     =    0.10000E-05
 RESIDUAL CHANGE CRITERION FOR CLOSURE =    0.10000E-05
 RESIDUAL CONVERGENCE OPTION           = 0
 RESIDUAL CONVERGENCE NORM             = INFINITY NORM   
 RELAXATION FACTOR                     =    0.10000E+01




 IMS -- ITERATIVE MODEL SOLUTION PACKAGE, VERSION 6, 4/28/2017
         INPUT READ FROM UNIT 6518
 # File generated by Flopy version 3.5.0.dev0 on 07/12/2024 at 09:44:05.

 PROCESSING IMS OPTIONS
 END OF IMS OPTIONS

 PROCESSING IMS NONLINEAR
 END OF IMS NONLINEAR DATA
 ***UNDER-RELAXATION WILL NOT BE USED***
 

 PROCESSING LINEAR DATA
 END OF LINEAR DATA
 ***IMS LINEAR SOLVER WILL BE USED***

 IMSLINEAR -- UNSTRUCTURED LINEAR SOLUTION PACKAGE, VERSION 8, 04/28/2017
 An asymmetric matrix will be solved

 OUTER ITERATION CONVERGENCE CRITERION    (DVCLOSE) =    0.100000E-05
 MAXIMUM NUMBER OF OUTER ITERATIONS        (MXITER) = 300
 SOLVER PRINTOUT INDEX                     (IPRIMS) = 1
 NONLINEAR ITERATION METHOD            (NONLINMETH) = 0
 LINEAR SOLUTION METHOD                   (LINMETH) = 1

       SOLUTION BY THE BICONJUGATE-GRADIENT STABILIZED METHOD
 ------------------------------------------------------------------
 MAXIMUM OF 300 CALLS OF SOLUTION ROUTINE
 MAXIMUM OF 600 INTERNAL ITERATIONS PER CALL TO SOLUTION ROUTINE
 LINEAR ACCELERATION METHOD            = BCGS      
 MATRIX PRECONDITIONING TYPE           = MOD. INCOMPLETE LU  
 MATRIX SCALING APPROACH               = NO SCALING          
 MATRIX REORDERING APPROACH            = ORIGINAL ORDERING        
 NUMBER OF ORTHOGONALIZATIONS          = 0
 HEAD CHANGE CRITERION FOR CLOSURE     =    0.10000E-05
 RESIDUAL CHANGE CRITERION FOR CLOSURE =    0.10000E-05
 RESIDUAL CONVERGENCE OPTION           = 0
 RESIDUAL CONVERGENCE NORM             = INFINITY NORM   
 RELAXATION FACTOR                     =    0.10000E+01




 IMS -- ITERATIVE MODEL SOLUTION PACKAGE, VERSION 6, 4/28/2017
         INPUT READ FROM UNIT 6519
 # File generated by Flopy version 3.5.0.dev0 on 07/12/2024 at 09:44:05.

 PROCESSING IMS OPTIONS
 END OF IMS OPTIONS

 PROCESSING IMS NONLINEAR
 END OF IMS NONLINEAR DATA
 ***UNDER-RELAXATION WILL NOT BE USED***
 

 PROCESSING LINEAR DATA
 END OF LINEAR DATA
 ***IMS LINEAR SOLVER WILL BE USED***

 IMSLINEAR -- UNSTRUCTURED LINEAR SOLUTION PACKAGE, VERSION 8, 04/28/2017
 An asymmetric matrix will be solved

 OUTER ITERATION CONVERGENCE CRITERION    (DVCLOSE) =    0.100000E-05
 MAXIMUM NUMBER OF OUTER ITERATIONS        (MXITER) = 300
 SOLVER PRINTOUT INDEX                     (IPRIMS) = 1
 NONLINEAR ITERATION METHOD            (NONLINMETH) = 0
 LINEAR SOLUTION METHOD                   (LINMETH) = 1

       SOLUTION BY THE BICONJUGATE-GRADIENT STABILIZED METHOD
 ------------------------------------------------------------------
 MAXIMUM OF 300 CALLS OF SOLUTION ROUTINE
 MAXIMUM OF 600 INTERNAL ITERATIONS PER CALL TO SOLUTION ROUTINE
 LINEAR ACCELERATION METHOD            = BCGS      
 MATRIX PRECONDITIONING TYPE           = MOD. INCOMPLETE LU  
 MATRIX SCALING APPROACH               = NO SCALING          
 MATRIX REORDERING APPROACH            = ORIGINAL ORDERING        
 NUMBER OF ORTHOGONALIZATIONS          = 0
 HEAD CHANGE CRITERION FOR CLOSURE     =    0.10000E-05
 RESIDUAL CHANGE CRITERION FOR CLOSURE =    0.10000E-05
 RESIDUAL CONVERGENCE OPTION           = 0
 RESIDUAL CONVERGENCE NORM             = INFINITY NORM   
 RELAXATION FACTOR                     =    0.10000E+01




 IMS -- ITERATIVE MODEL SOLUTION PACKAGE, VERSION 6, 4/28/2017
         INPUT READ FROM UNIT 6520
 # File generated by Flopy version 3.5.0.dev0 on 07/12/2024 at 09:44:05.

 PROCESSING IMS OPTIONS
 END OF IMS OPTIONS

 PROCESSING IMS NONLINEAR
 END OF IMS NONLINEAR DATA
 ***UNDER-RELAXATION WILL NOT BE USED***
 

 PROCESSING LINEAR DATA
 END OF LINEAR DATA
 ***IMS LINEAR SOLVER WILL BE USED***

 IMSLINEAR -- UNSTRUCTURED LINEAR SOLUTION PACKAGE, VERSION 8, 04/28/2017
 An asymmetric matrix will be solved

 OUTER ITERATION CONVERGENCE CRITERION    (DVCLOSE) =    0.100000E-05
 MAXIMUM NUMBER OF OUTER ITERATIONS        (MXITER) = 300
 SOLVER PRINTOUT INDEX                     (IPRIMS) = 1
 NONLINEAR ITERATION METHOD            (NONLINMETH) = 0
 LINEAR SOLUTION METHOD                   (LINMETH) = 1

       SOLUTION BY THE BICONJUGATE-GRADIENT STABILIZED METHOD
 ------------------------------------------------------------------
 MAXIMUM OF 300 CALLS OF SOLUTION ROUTINE
 MAXIMUM OF 600 INTERNAL ITERATIONS PER CALL TO SOLUTION ROUTINE
 LINEAR ACCELERATION METHOD            = BCGS      
 MATRIX PRECONDITIONING TYPE           = MOD. INCOMPLETE LU  
 MATRIX SCALING APPROACH               = NO SCALING          
 MATRIX REORDERING APPROACH            = ORIGINAL ORDERING        
 NUMBER OF ORTHOGONALIZATIONS          = 0
 HEAD CHANGE CRITERION FOR CLOSURE     =    0.10000E-05
 RESIDUAL CHANGE CRITERION FOR CLOSURE =    0.10000E-05
 RESIDUAL CONVERGENCE OPTION           = 0
 RESIDUAL CONVERGENCE NORM             = INFINITY NORM   
 RELAXATION FACTOR                     =    0.10000E+01




 IMS -- ITERATIVE MODEL SOLUTION PACKAGE, VERSION 6, 4/28/2017
         INPUT READ FROM UNIT 6521
 # File generated by Flopy version 3.5.0.dev0 on 07/12/2024 at 09:44:05.

 PROCESSING IMS OPTIONS
 END OF IMS OPTIONS

 PROCESSING IMS NONLINEAR
 END OF IMS NONLINEAR DATA
 ***UNDER-RELAXATION WILL NOT BE USED***
 

 PROCESSING LINEAR DATA
 END OF LINEAR DATA
 ***IMS LINEAR SOLVER WILL BE USED***

 IMSLINEAR -- UNSTRUCTURED LINEAR SOLUTION PACKAGE, VERSION 8, 04/28/2017
 An asymmetric matrix will be solved

 OUTER ITERATION CONVERGENCE CRITERION    (DVCLOSE) =    0.100000E-05
 MAXIMUM NUMBER OF OUTER ITERATIONS        (MXITER) = 300
 SOLVER PRINTOUT INDEX                     (IPRIMS) = 1
 NONLINEAR ITERATION METHOD            (NONLINMETH) = 0
 LINEAR SOLUTION METHOD                   (LINMETH) = 1

       SOLUTION BY THE BICONJUGATE-GRADIENT STABILIZED METHOD
 ------------------------------------------------------------------
 MAXIMUM OF 300 CALLS OF SOLUTION ROUTINE
 MAXIMUM OF 600 INTERNAL ITERATIONS PER CALL TO SOLUTION ROUTINE
 LINEAR ACCELERATION METHOD            = BCGS      
 MATRIX PRECONDITIONING TYPE           = MOD. INCOMPLETE LU  
 MATRIX SCALING APPROACH               = NO SCALING          
 MATRIX REORDERING APPROACH            = ORIGINAL ORDERING        
 NUMBER OF ORTHOGONALIZATIONS          = 0
 HEAD CHANGE CRITERION FOR CLOSURE     =    0.10000E-05
 RESIDUAL CHANGE CRITERION FOR CLOSURE =    0.10000E-05
 RESIDUAL CONVERGENCE OPTION           = 0
 RESIDUAL CONVERGENCE NORM             = INFINITY NORM   
 RELAXATION FACTOR                     =    0.10000E+01




 IMS -- ITERATIVE MODEL SOLUTION PACKAGE, VERSION 6, 4/28/2017
         INPUT READ FROM UNIT 6522
 # File generated by Flopy version 3.5.0.dev0 on 07/12/2024 at 09:44:05.

 PROCESSING IMS OPTIONS
 END OF IMS OPTIONS

 PROCESSING IMS NONLINEAR
 END OF IMS NONLINEAR DATA
 ***UNDER-RELAXATION WILL NOT BE USED***
 

 PROCESSING LINEAR DATA
 END OF LINEAR DATA
 ***IMS LINEAR SOLVER WILL BE USED***

 IMSLINEAR -- UNSTRUCTURED LINEAR SOLUTION PACKAGE, VERSION 8, 04/28/2017
 An asymmetric matrix will be solved

 OUTER ITERATION CONVERGENCE CRITERION    (DVCLOSE) =    0.100000E-05
 MAXIMUM NUMBER OF OUTER ITERATIONS        (MXITER) = 300
 SOLVER PRINTOUT INDEX                     (IPRIMS) = 1
 NONLINEAR ITERATION METHOD            (NONLINMETH) = 0
 LINEAR SOLUTION METHOD                   (LINMETH) = 1

       SOLUTION BY THE BICONJUGATE-GRADIENT STABILIZED METHOD
 ------------------------------------------------------------------
 MAXIMUM OF 300 CALLS OF SOLUTION ROUTINE
 MAXIMUM OF 600 INTERNAL ITERATIONS PER CALL TO SOLUTION ROUTINE
 LINEAR ACCELERATION METHOD            = BCGS      
 MATRIX PRECONDITIONING TYPE           = MOD. INCOMPLETE LU  
 MATRIX SCALING APPROACH               = NO SCALING          
 MATRIX REORDERING APPROACH            = ORIGINAL ORDERING        
 NUMBER OF ORTHOGONALIZATIONS          = 0
 HEAD CHANGE CRITERION FOR CLOSURE     =    0.10000E-05
 RESIDUAL CHANGE CRITERION FOR CLOSURE =    0.10000E-05
 RESIDUAL CONVERGENCE OPTION           = 0
 RESIDUAL CONVERGENCE NORM             = INFINITY NORM   
 RELAXATION FACTOR                     =    0.10000E+01




 IMS -- ITERATIVE MODEL SOLUTION PACKAGE, VERSION 6, 4/28/2017
         INPUT READ FROM UNIT 6523
 # File generated by Flopy version 3.5.0.dev0 on 07/12/2024 at 09:44:05.

 PROCESSING IMS OPTIONS
 END OF IMS OPTIONS

 PROCESSING IMS NONLINEAR
 END OF IMS NONLINEAR DATA
 ***UNDER-RELAXATION WILL NOT BE USED***
 

 PROCESSING LINEAR DATA
 END OF LINEAR DATA
 ***IMS LINEAR SOLVER WILL BE USED***

 IMSLINEAR -- UNSTRUCTURED LINEAR SOLUTION PACKAGE, VERSION 8, 04/28/2017
 An asymmetric matrix will be solved

 OUTER ITERATION CONVERGENCE CRITERION    (DVCLOSE) =    0.100000E-05
 MAXIMUM NUMBER OF OUTER ITERATIONS        (MXITER) = 300
 SOLVER PRINTOUT INDEX                     (IPRIMS) = 1
 NONLINEAR ITERATION METHOD            (NONLINMETH) = 0
 LINEAR SOLUTION METHOD                   (LINMETH) = 1

       SOLUTION BY THE BICONJUGATE-GRADIENT STABILIZED METHOD
 ------------------------------------------------------------------
 MAXIMUM OF 300 CALLS OF SOLUTION ROUTINE
 MAXIMUM OF 600 INTERNAL ITERATIONS PER CALL TO SOLUTION ROUTINE
 LINEAR ACCELERATION METHOD            = BCGS      
 MATRIX PRECONDITIONING TYPE           = MOD. INCOMPLETE LU  
 MATRIX SCALING APPROACH               = NO SCALING          
 MATRIX REORDERING APPROACH            = ORIGINAL ORDERING        
 NUMBER OF ORTHOGONALIZATIONS          = 0
 HEAD CHANGE CRITERION FOR CLOSURE     =    0.10000E-05
 RESIDUAL CHANGE CRITERION FOR CLOSURE =    0.10000E-05
 RESIDUAL CONVERGENCE OPTION           = 0
 RESIDUAL CONVERGENCE NORM             = INFINITY NORM   
 RELAXATION FACTOR                     =    0.10000E+01




 IMS -- ITERATIVE MODEL SOLUTION PACKAGE, VERSION 6, 4/28/2017
         INPUT READ FROM UNIT 6524
 # File generated by Flopy version 3.5.0.dev0 on 07/12/2024 at 09:44:05.

 PROCESSING IMS OPTIONS
 END OF IMS OPTIONS

 PROCESSING IMS NONLINEAR
 END OF IMS NONLINEAR DATA
 ***UNDER-RELAXATION WILL NOT BE USED***
 

 PROCESSING LINEAR DATA
 END OF LINEAR DATA
 ***IMS LINEAR SOLVER WILL BE USED***

 IMSLINEAR -- UNSTRUCTURED LINEAR SOLUTION PACKAGE, VERSION 8, 04/28/2017
 An asymmetric matrix will be solved

 OUTER ITERATION CONVERGENCE CRITERION    (DVCLOSE) =    0.100000E-05
 MAXIMUM NUMBER OF OUTER ITERATIONS        (MXITER) = 300
 SOLVER PRINTOUT INDEX                     (IPRIMS) = 1
 NONLINEAR ITERATION METHOD            (NONLINMETH) = 0
 LINEAR SOLUTION METHOD                   (LINMETH) = 1

       SOLUTION BY THE BICONJUGATE-GRADIENT STABILIZED METHOD
 ------------------------------------------------------------------
 MAXIMUM OF 300 CALLS OF SOLUTION ROUTINE
 MAXIMUM OF 600 INTERNAL ITERATIONS PER CALL TO SOLUTION ROUTINE
 LINEAR ACCELERATION METHOD            = BCGS      
 MATRIX PRECONDITIONING TYPE           = MOD. INCOMPLETE LU  
 MATRIX SCALING APPROACH               = NO SCALING          
 MATRIX REORDERING APPROACH            = ORIGINAL ORDERING        
 NUMBER OF ORTHOGONALIZATIONS          = 0
 HEAD CHANGE CRITERION FOR CLOSURE     =    0.10000E-05
 RESIDUAL CHANGE CRITERION FOR CLOSURE =    0.10000E-05
 RESIDUAL CONVERGENCE OPTION           = 0
 RESIDUAL CONVERGENCE NORM             = INFINITY NORM   
 RELAXATION FACTOR                     =    0.10000E+01




 IMS -- ITERATIVE MODEL SOLUTION PACKAGE, VERSION 6, 4/28/2017
         INPUT READ FROM UNIT 6525
 # File generated by Flopy version 3.5.0.dev0 on 07/12/2024 at 09:44:05.

 PROCESSING IMS OPTIONS
 END OF IMS OPTIONS

 PROCESSING IMS NONLINEAR
 END OF IMS NONLINEAR DATA
 ***UNDER-RELAXATION WILL NOT BE USED***
 

 PROCESSING LINEAR DATA
 END OF LINEAR DATA
 ***IMS LINEAR SOLVER WILL BE USED***

 IMSLINEAR -- UNSTRUCTURED LINEAR SOLUTION PACKAGE, VERSION 8, 04/28/2017
 An asymmetric matrix will be solved

 OUTER ITERATION CONVERGENCE CRITERION    (DVCLOSE) =    0.100000E-05
 MAXIMUM NUMBER OF OUTER ITERATIONS        (MXITER) = 300
 SOLVER PRINTOUT INDEX                     (IPRIMS) = 1
 NONLINEAR ITERATION METHOD            (NONLINMETH) = 0
 LINEAR SOLUTION METHOD                   (LINMETH) = 1

       SOLUTION BY THE BICONJUGATE-GRADIENT STABILIZED METHOD
 ------------------------------------------------------------------
 MAXIMUM OF 300 CALLS OF SOLUTION ROUTINE
 MAXIMUM OF 600 INTERNAL ITERATIONS PER CALL TO SOLUTION ROUTINE
 LINEAR ACCELERATION METHOD            = BCGS      
 MATRIX PRECONDITIONING TYPE           = MOD. INCOMPLETE LU  
 MATRIX SCALING APPROACH               = NO SCALING          
 MATRIX REORDERING APPROACH            = ORIGINAL ORDERING        
 NUMBER OF ORTHOGONALIZATIONS          = 0
 HEAD CHANGE CRITERION FOR CLOSURE     =    0.10000E-05
 RESIDUAL CHANGE CRITERION FOR CLOSURE =    0.10000E-05
 RESIDUAL CONVERGENCE OPTION           = 0
 RESIDUAL CONVERGENCE NORM             = INFINITY NORM   
 RELAXATION FACTOR                     =    0.10000E+01



 
    Solving:  Stress period:     1    Time step:     1
 
1
                            STRESS PERIOD NO. 1, LENGTH =   2000.000    
                            -----------------------------------------------
                            NUMBER OF TIME STEPS = 200
                            MULTIPLIER FOR DELT =     1.000
                            INITIAL TIME STEP SIZE =   10.00000    

 SLN_1 OUTER ITERATION SUMMARY
 ----------------------------------------------------------------------------------------------------------------------------------------------------------------
                                OUTER      INNER  BACKTRACK  BACKTRACK        INCOMING        OUTGOING                    STEP   MAXIMUM CHANGE MODEL-(CELLID) OR
 OUTER ITERATION STEP       ITERATION  ITERATION       FLAG ITERATIONS        RESIDUAL        RESIDUAL  MAXIMUM CHANGE SUCCESS             MODEL-PACKAGE-(NUMBER)
 ----------------------------------------------------------------------------------------------------------------------------------------------------------------
 Backtracking                       1                     0          0       1.5811388       1.5811388                       *                                   
 Model                              1         38                                                             1.9166668                              1_GWF-(1,1,2)
 Backtracking                       2                     0          0  3.14151776E-06  3.14151776E-06                       *                                   
 Model                              2          5                                                       -6.18518193E-06                              1_GWF-(6,1,7)
 Backtracking                       3                     0          0  9.70681656E-08  9.70681656E-08                       *                                   
 Model                              3          1                                                        9.84448487E-08       *                      1_GWF-(6,1,7)
 ----------------------------------------------------------------------------------------------------------------------------------------------------------------


 3 CALLS TO NUMERICAL SOLUTION IN TIME STEP 1 STRESS PERIOD 1
 44 TOTAL ITERATIONS

 SLN_2 OUTER ITERATION SUMMARY
 ----------------------------------------------------------------------------------------------------------
                                OUTER      INNER                    STEP   MAXIMUM CHANGE MODEL-(CELLID) OR
 OUTER ITERATION STEP       ITERATION  ITERATION  MAXIMUM CHANGE SUCCESS             MODEL-PACKAGE-(NUMBER)
 ----------------------------------------------------------------------------------------------------------
 Model                              1          3     -0.26259691                              2_GWT-(1,1,1)
 Model                              2          3 -2.87646872E-03                              2_GWT-(1,1,2)
 Model                              3          2  3.73672738E-04                              2_GWT-(1,1,3)
 Model                              4          2  6.61313679E-05                              2_GWT-(1,1,3)
 Model                              5          2  1.20412151E-05                              2_GWT-(1,1,3)
 Model                              6          2  2.27696728E-06                              2_GWT-(1,1,3)
 Model                              7          1  4.38725692E-07       *                      2_GWT-(1,1,3)
 ----------------------------------------------------------------------------------------------------------


 7 CALLS TO NUMERICAL SOLUTION IN TIME STEP 1 STRESS PERIOD 1
 15 TOTAL ITERATIONS

 SLN_3 OUTER ITERATION SUMMARY
 ----------------------------------------------------------------------------------------------------------
                                OUTER      INNER                    STEP   MAXIMUM CHANGE MODEL-(CELLID) OR
 OUTER ITERATION STEP       ITERATION  ITERATION  MAXIMUM CHANGE SUCCESS             MODEL-PACKAGE-(NUMBER)
 ----------------------------------------------------------------------------------------------------------
 Model                              1          4       17.449632                              3_GWT-(1,1,1)
 Model                              2          4      0.19037724                              3_GWT-(1,1,2)
 Model                              3          3 -2.54295910E-02                              3_GWT-(1,1,3)
 Model                              4          3 -4.54538736E-03                              3_GWT-(1,1,3)
 Model                              5          3 -8.45588642E-04                              3_GWT-(1,1,3)
 Model                              6          2 -1.64401768E-04                              3_GWT-(1,1,3)
 Model                              7          2 -3.32281925E-05                              3_GWT-(1,1,3)
 Model                              8          2 -6.94232585E-06                              3_GWT-(1,1,3)
 Model                              9          2 -1.48956315E-06                              3_GWT-(1,1,3)
 Model                             10          1 -3.21808329E-07       *                      3_GWT-(1,1,3)
 ----------------------------------------------------------------------------------------------------------


 10 CALLS TO NUMERICAL SOLUTION IN TIME STEP 1 STRESS PERIOD 1
 26 TOTAL ITERATIONS

 SLN_4 OUTER ITERATION SUMMARY
 ----------------------------------------------------------------------------------------------------------
                                OUTER      INNER                    STEP   MAXIMUM CHANGE MODEL-(CELLID) OR
 OUTER ITERATION STEP       ITERATION  ITERATION  MAXIMUM CHANGE SUCCESS             MODEL-PACKAGE-(NUMBER)
 ----------------------------------------------------------------------------------------------------------
 Model                              1          3 -8.49887490E-03                              4_GWT-(1,1,1)
 Model                              2          2 -9.27114369E-05                              4_GWT-(1,1,2)
 Model                              3          2  1.23801091E-05                              4_GWT-(1,1,3)
 Model                              4          2  2.21193187E-06                              4_GWT-(1,1,3)
 Model                              5          1  4.06030770E-07       *                      4_GWT-(1,1,3)
 ----------------------------------------------------------------------------------------------------------


 5 CALLS TO NUMERICAL SOLUTION IN TIME STEP 1 STRESS PERIOD 1
 10 TOTAL ITERATIONS

 SLN_5 OUTER ITERATION SUMMARY
 ----------------------------------------------------------------------------------------------------------
                                OUTER      INNER                    STEP   MAXIMUM CHANGE MODEL-(CELLID) OR
 OUTER ITERATION STEP       ITERATION  ITERATION  MAXIMUM CHANGE SUCCESS             MODEL-PACKAGE-(NUMBER)
 ----------------------------------------------------------------------------------------------------------
 Model                              1          4      0.46747599                              5_GWT-(1,1,1)
 Model                              2          3  5.09993395E-03                              5_GWT-(1,1,2)
 Model                              3          3 -6.81099740E-04                              5_GWT-(1,1,3)
 Model                              4          2 -1.21736502E-04                              5_GWT-(1,1,3)
 Model                              5          2 -2.26458403E-05                              5_GWT-(1,1,3)
 Model                              6          2 -4.40348625E-06                              5_GWT-(1,1,3)
 Model                              7          1 -8.81372098E-07       *                      5_GWT-(1,1,3)
 ----------------------------------------------------------------------------------------------------------


 7 CALLS TO NUMERICAL SOLUTION IN TIME STEP 1 STRESS PERIOD 1
 17 TOTAL ITERATIONS

 SLN_6 OUTER ITERATION SUMMARY
 ----------------------------------------------------------------------------------------------------------
                                OUTER      INNER                    STEP   MAXIMUM CHANGE MODEL-(CELLID) OR
 OUTER ITERATION STEP       ITERATION  ITERATION  MAXIMUM CHANGE SUCCESS             MODEL-PACKAGE-(NUMBER)
 ----------------------------------------------------------------------------------------------------------
 Model                              1          4     -0.37521627                              6_GWT-(1,1,1)
 Model                              2          3 -4.09675845E-03                              6_GWT-(1,1,2)
 Model                              3          2  5.46916132E-04                              6_GWT-(1,1,3)
 Model                              4          2  9.77256396E-05                              6_GWT-(1,1,3)
 Model                              5          2  1.81732431E-05                              6_GWT-(1,1,3)
 Model                              6          2  3.53232887E-06                              6_GWT-(1,1,3)
 Model                              7          1  7.05100125E-07       *                      6_GWT-(1,1,3)
 ----------------------------------------------------------------------------------------------------------


 7 CALLS TO NUMERICAL SOLUTION IN TIME STEP 1 STRESS PERIOD 1
 16 TOTAL ITERATIONS

 SLN_7 OUTER ITERATION SUMMARY
 ----------------------------------------------------------------------------------------------------------
                                OUTER      INNER                    STEP   MAXIMUM CHANGE MODEL-(CELLID) OR
 OUTER ITERATION STEP       ITERATION  ITERATION  MAXIMUM CHANGE SUCCESS             MODEL-PACKAGE-(NUMBER)
 ----------------------------------------------------------------------------------------------------------
 Model                              1          4      0.41627621                              7_GWT-(1,1,1)
 Model                              2          3  4.48847863E-03                              7_GWT-(1,1,2)
 Model                              3          3 -6.02355809E-04                              7_GWT-(1,1,3)
 Model                              4          2 -1.07968487E-04                              7_GWT-(1,1,3)
 Model                              5          2 -2.01561446E-05                              7_GWT-(1,1,3)
 Model                              6          2 -3.93319985E-06                              7_GWT-(1,1,3)
 Model                              7          1 -7.89291875E-07       *                      7_GWT-(1,1,3)
 ----------------------------------------------------------------------------------------------------------


 7 CALLS TO NUMERICAL SOLUTION IN TIME STEP 1 STRESS PERIOD 1
 17 TOTAL ITERATIONS

 SLN_8 OUTER ITERATION SUMMARY
 ----------------------------------------------------------------------------------------------------------
                                OUTER      INNER                    STEP   MAXIMUM CHANGE MODEL-(CELLID) OR
 OUTER ITERATION STEP       ITERATION  ITERATION  MAXIMUM CHANGE SUCCESS             MODEL-PACKAGE-(NUMBER)
 ----------------------------------------------------------------------------------------------------------
 Model                              1          3 -9.90383825E-02                              8_GWT-(1,1,1)
 Model                              2          3 -1.08042332E-03                              8_GWT-(1,1,2)
 Model                              3          2  1.44295846E-04                              8_GWT-(1,1,3)
 Model                              4          2  2.57899063E-05                              8_GWT-(1,1,3)
 Model                              5          2  4.79723896E-06                              8_GWT-(1,1,3)
 Model                              6          1  9.25622648E-07       *                      8_GWT-(1,1,3)
 ----------------------------------------------------------------------------------------------------------


 6 CALLS TO NUMERICAL SOLUTION IN TIME STEP 1 STRESS PERIOD 1
 13 TOTAL ITERATIONS

 SLN_9 OUTER ITERATION SUMMARY
 ----------------------------------------------------------------------------------------------------------
                                OUTER      INNER                    STEP   MAXIMUM CHANGE MODEL-(CELLID) OR
 OUTER ITERATION STEP       ITERATION  ITERATION  MAXIMUM CHANGE SUCCESS             MODEL-PACKAGE-(NUMBER)
 ----------------------------------------------------------------------------------------------------------
 Model                              1          4       3.3259646                              9_GWT-(1,1,1)
 Model                              2          3  3.63319185E-02                              9_GWT-(1,1,2)
 Model                              3          3 -4.84930224E-03                              9_GWT-(1,1,3)
 Model                              4          3 -8.66401455E-04                              9_GWT-(1,1,3)
 Model                              5          2 -1.61089439E-04                              9_GWT-(1,1,3)
 Model                              6          2 -3.13086317E-05                              9_GWT-(1,1,3)
 Model                              7          2 -6.32376894E-06                              9_GWT-(1,1,3)
 Model                              8          2 -1.31659059E-06                              9_GWT-(1,1,3)
 Model                              9          1 -2.77634672E-07       *                      9_GWT-(1,1,3)
 ----------------------------------------------------------------------------------------------------------


 9 CALLS TO NUMERICAL SOLUTION IN TIME STEP 1 STRESS PERIOD 1
 22 TOTAL ITERATIONS

 SLN_10 OUTER ITERATION SUMMARY
 ----------------------------------------------------------------------------------------------------------
                                OUTER      INNER                    STEP   MAXIMUM CHANGE MODEL-(CELLID) OR
 OUTER ITERATION STEP       ITERATION  ITERATION  MAXIMUM CHANGE SUCCESS             MODEL-PACKAGE-(NUMBER)
 ----------------------------------------------------------------------------------------------------------
 Model                              1          3  7.89806638E-02                             10_GWT-(1,1,1)
 Model                              2          3  8.61611014E-04                             10_GWT-(1,1,2)
 Model                              3          2 -1.15072895E-04                             10_GWT-(1,1,3)
 Model                              4          2 -2.05666989E-05                             10_GWT-(1,1,3)
 Model                              5          2 -3.82549187E-06                             10_GWT-(1,1,3)
 Model                              6          1 -7.36570433E-07       *                     10_GWT-(1,1,3)
 ----------------------------------------------------------------------------------------------------------


 6 CALLS TO NUMERICAL SOLUTION IN TIME STEP 1 STRESS PERIOD 1
 13 TOTAL ITERATIONS

 SLN_11 OUTER ITERATION SUMMARY
 ----------------------------------------------------------------------------------------------------------
                                OUTER      INNER                    STEP   MAXIMUM CHANGE MODEL-(CELLID) OR
 OUTER ITERATION STEP       ITERATION  ITERATION  MAXIMUM CHANGE SUCCESS             MODEL-PACKAGE-(NUMBER)
 ----------------------------------------------------------------------------------------------------------
 Model                              1          3     -0.10773550                             11_GWT-(1,1,1)
 Model                              2          3 -1.17530132E-03                             11_GWT-(1,1,2)
 Model                              3          2  1.56966977E-04                             11_GWT-(1,1,3)
 Model                              4          2  2.80547065E-05                             11_GWT-(1,1,3)
 Model                              5          2  5.21858269E-06                             11_GWT-(1,1,3)
 Model                              6          2  1.01123997E-06                             11_GWT-(1,1,3)
 Model                              7          1  2.00830483E-07       *                     11_GWT-(1,1,3)
 ----------------------------------------------------------------------------------------------------------


 7 CALLS TO NUMERICAL SOLUTION IN TIME STEP 1 STRESS PERIOD 1
 15 TOTAL ITERATIONS

 SLN_12 OUTER ITERATION SUMMARY
 ----------------------------------------------------------------------------------------------------------
                                OUTER      INNER                    STEP   MAXIMUM CHANGE MODEL-(CELLID) OR
 OUTER ITERATION STEP       ITERATION  ITERATION  MAXIMUM CHANGE SUCCESS             MODEL-PACKAGE-(NUMBER)
 ----------------------------------------------------------------------------------------------------------
 Model                              1          3 -4.07351135E-03                             12_GWT-(1,1,1)
 Model                              2          2 -4.44359248E-05                             12_GWT-(1,1,2)
 Model                              3          2  5.93326782E-06                             12_GWT-(1,1,3)
 Model                              4          2  1.05936407E-06                             12_GWT-(1,1,3)
 Model                              5          1  1.91611812E-07       *                     12_GWT-(1,1,3)
 ----------------------------------------------------------------------------------------------------------


 5 CALLS TO NUMERICAL SOLUTION IN TIME STEP 1 STRESS PERIOD 1
 10 TOTAL ITERATIONS

 SLN_13 OUTER ITERATION SUMMARY
 ----------------------------------------------------------------------------------------------------------
                                OUTER      INNER                    STEP   MAXIMUM CHANGE MODEL-(CELLID) OR
 OUTER ITERATION STEP       ITERATION  ITERATION  MAXIMUM CHANGE SUCCESS             MODEL-PACKAGE-(NUMBER)
 ----------------------------------------------------------------------------------------------------------
 Model                              1          3  9.78425354E-03                             13_GWT-(1,1,1)
 Model                              2          2  1.06733504E-04                             13_GWT-(1,1,2)
 Model                              3          2 -1.42529310E-05                             13_GWT-(1,1,3)
 Model                              4          2 -2.54669270E-06                             13_GWT-(1,1,3)
 Model                              5          1 -4.68255883E-07       *                     13_GWT-(1,1,3)
 ----------------------------------------------------------------------------------------------------------


 5 CALLS TO NUMERICAL SOLUTION IN TIME STEP 1 STRESS PERIOD 1
 10 TOTAL ITERATIONS

 SLN_14 OUTER ITERATION SUMMARY
 ----------------------------------------------------------------------------------------------------------
                                OUTER      INNER                    STEP   MAXIMUM CHANGE MODEL-(CELLID) OR
 OUTER ITERATION STEP       ITERATION  ITERATION  MAXIMUM CHANGE SUCCESS             MODEL-PACKAGE-(NUMBER)
 ----------------------------------------------------------------------------------------------------------
 Model                              1          4       4.6225160                             14_GWT-(1,1,1)
 Model                              2          3  5.04275936E-02                             14_GWT-(1,1,2)
 Model                              3          3 -6.73476432E-03                             14_GWT-(1,1,3)
 Model                              4          3 -1.20375404E-03                             14_GWT-(1,1,3)
 Model                              5          2 -2.23928688E-04                             14_GWT-(1,1,3)
 Model                              6          2 -4.35445925E-05                             14_GWT-(1,1,3)
 Model                              7          2 -8.79990593E-06                             14_GWT-(1,1,3)
[...]
 ----------------------------------------------------------------------------------------------------------
 Model                              1          4       1.2227336                              2_GWT-(3,1,1)
 Model                              2          3  1.98398585E-02                              2_GWT-(3,1,2)
 Model                              3          3  7.39347452E-04                              2_GWT-(2,1,3)
 Model                              4          2  6.37779449E-05                              2_GWT-(1,1,6)
 Model                              5          2  6.62037928E-06                              2_GWT-(1,1,6)
 Model                              6          1  7.05142156E-07       *                      2_GWT-(1,1,6)
 ----------------------------------------------------------------------------------------------------------


 6 CALLS TO NUMERICAL SOLUTION IN TIME STEP 200 STRESS PERIOD 1
 15 TOTAL ITERATIONS

 SLN_3 OUTER ITERATION SUMMARY
 ----------------------------------------------------------------------------------------------------------
                                OUTER      INNER                    STEP   MAXIMUM CHANGE MODEL-(CELLID) OR
 OUTER ITERATION STEP       ITERATION  ITERATION  MAXIMUM CHANGE SUCCESS             MODEL-PACKAGE-(NUMBER)
 ----------------------------------------------------------------------------------------------------------
 Model                              1          4      -1.1193508                              3_GWT-(4,1,4)
 Model                              2          3 -4.82513418E-02                              3_GWT-(5,1,4)
 Model                              3          3 -3.91227614E-03                              3_GWT-(5,1,4)
 Model                              4          3 -3.97623298E-04                              3_GWT-(5,1,4)
 Model                              5          2  4.76595669E-05                              3_GWT-(2,1,3)
 Model                              6          2  6.94850314E-06                              3_GWT-(2,1,3)
 Model                              7          2  1.00897159E-06                              3_GWT-(1,1,3)
 Model                              8          1  1.40724296E-07       *                      3_GWT-(1,1,3)
 ----------------------------------------------------------------------------------------------------------


 8 CALLS TO NUMERICAL SOLUTION IN TIME STEP 200 STRESS PERIOD 1
 20 TOTAL ITERATIONS

 SLN_4 OUTER ITERATION SUMMARY
 ----------------------------------------------------------------------------------------------------------
                                OUTER      INNER                    STEP   MAXIMUM CHANGE MODEL-(CELLID) OR
 OUTER ITERATION STEP       ITERATION  ITERATION  MAXIMUM CHANGE SUCCESS             MODEL-PACKAGE-(NUMBER)
 ----------------------------------------------------------------------------------------------------------
 Model                              1          2 -3.41476906E-05                            4_GWT-(10,1,25)
 Model                              2          1 -3.25684529E-07       *                     4_GWT-(1,1,25)
 ----------------------------------------------------------------------------------------------------------


 2 CALLS TO NUMERICAL SOLUTION IN TIME STEP 200 STRESS PERIOD 1
 3 TOTAL ITERATIONS

 SLN_5 OUTER ITERATION SUMMARY
 ----------------------------------------------------------------------------------------------------------
                                OUTER      INNER                    STEP   MAXIMUM CHANGE MODEL-(CELLID) OR
 OUTER ITERATION STEP       ITERATION  ITERATION  MAXIMUM CHANGE SUCCESS             MODEL-PACKAGE-(NUMBER)
 ----------------------------------------------------------------------------------------------------------
 Model                              1          4      0.42253494                              5_GWT-(3,1,1)
 Model                              2          3  9.68115161E-03                              5_GWT-(1,1,2)
 Model                              3          3 -1.29069566E-03                              5_GWT-(1,1,3)
 Model                              4          2 -2.29518067E-04                              5_GWT-(1,1,3)
 Model                              5          2 -4.25320622E-05                              5_GWT-(1,1,3)
 Model                              6          2 -8.24528775E-06                              5_GWT-(1,1,3)
 Model                              7          2 -1.65995378E-06                              5_GWT-(1,1,3)
 Model                              8          1 -3.39439540E-07       *                      5_GWT-(1,1,3)
 ----------------------------------------------------------------------------------------------------------


 8 CALLS TO NUMERICAL SOLUTION IN TIME STEP 200 STRESS PERIOD 1
 19 TOTAL ITERATIONS

 SLN_6 OUTER ITERATION SUMMARY
 ----------------------------------------------------------------------------------------------------------
                                OUTER      INNER                    STEP   MAXIMUM CHANGE MODEL-(CELLID) OR
 OUTER ITERATION STEP       ITERATION  ITERATION  MAXIMUM CHANGE SUCCESS             MODEL-PACKAGE-(NUMBER)
 ----------------------------------------------------------------------------------------------------------
 Model                              1          4     -0.33882071                              6_GWT-(4,1,4)
 Model                              2          3 -1.49259182E-02                              6_GWT-(5,1,4)
 Model                              3          3 -7.18271572E-04                              6_GWT-(1,1,5)
 Model                              4          2  1.10648206E-04                              6_GWT-(1,1,6)
 Model                              5          2  1.81229403E-05                              6_GWT-(1,1,6)
 Model                              6          2  3.11885681E-06                              6_GWT-(1,1,6)
 Model                              7          1  5.25981926E-07       *                      6_GWT-(1,1,6)
 ----------------------------------------------------------------------------------------------------------


 7 CALLS TO NUMERICAL SOLUTION IN TIME STEP 200 STRESS PERIOD 1
 17 TOTAL ITERATIONS

 SLN_7 OUTER ITERATION SUMMARY
 ----------------------------------------------------------------------------------------------------------
                                OUTER      INNER                    STEP   MAXIMUM CHANGE MODEL-(CELLID) OR
 OUTER ITERATION STEP       ITERATION  ITERATION  MAXIMUM CHANGE SUCCESS             MODEL-PACKAGE-(NUMBER)
 ----------------------------------------------------------------------------------------------------------
 Model                              1          4     -0.70149189                              7_GWT-(4,1,4)
 Model                              2          3 -2.81013521E-02                              7_GWT-(4,1,4)
 Model                              3          3 -2.53769110E-03                              7_GWT-(5,1,4)
 Model                              4          3  3.54418509E-04                              7_GWT-(4,1,5)
 Model                              5          2  5.06148962E-05                              7_GWT-(5,1,5)
 Model                              6          2  7.36185353E-06                              7_GWT-(5,1,5)
 Model                              7          2  1.07465946E-06                              7_GWT-(5,1,5)
 Model                              8          1  1.54849142E-07       *                      7_GWT-(5,1,5)
 ----------------------------------------------------------------------------------------------------------


 8 CALLS TO NUMERICAL SOLUTION IN TIME STEP 200 STRESS PERIOD 1
 20 TOTAL ITERATIONS

 SLN_8 OUTER ITERATION SUMMARY
 ----------------------------------------------------------------------------------------------------------
                                OUTER      INNER                    STEP   MAXIMUM CHANGE MODEL-(CELLID) OR
 OUTER ITERATION STEP       ITERATION  ITERATION  MAXIMUM CHANGE SUCCESS             MODEL-PACKAGE-(NUMBER)
 ----------------------------------------------------------------------------------------------------------
 Model                              1          2 -3.97595658E-04                            8_GWT-(10,1,25)
 Model                              2          2 -3.73658879E-06                            8_GWT-(10,1,25)
 Model                              3          1 -1.05518167E-07       *                     8_GWT-(1,1,25)
 ----------------------------------------------------------------------------------------------------------


 3 CALLS TO NUMERICAL SOLUTION IN TIME STEP 200 STRESS PERIOD 1
 5 TOTAL ITERATIONS

 SLN_9 OUTER ITERATION SUMMARY
 ----------------------------------------------------------------------------------------------------------
                                OUTER      INNER                    STEP   MAXIMUM CHANGE MODEL-(CELLID) OR
 OUTER ITERATION STEP       ITERATION  ITERATION  MAXIMUM CHANGE SUCCESS             MODEL-PACKAGE-(NUMBER)
 ----------------------------------------------------------------------------------------------------------
 Model                              1          4      0.36020711                              9_GWT-(3,1,4)
 Model                              2          3  2.25614400E-02                              9_GWT-(3,1,4)
 Model                              3          3  2.21907282E-03                              9_GWT-(3,1,4)
 Model                              4          3 -2.82987586E-04                              9_GWT-(4,1,5)
 Model                              5          2 -4.47767502E-05                              9_GWT-(4,1,5)
 Model                              6          2 -7.41592794E-06                              9_GWT-(4,1,5)
 Model                              7          2 -1.27679338E-06                              9_GWT-(4,1,5)
 Model                              8          1 -2.27561045E-07       *                      9_GWT-(5,1,5)
 ----------------------------------------------------------------------------------------------------------


 8 CALLS TO NUMERICAL SOLUTION IN TIME STEP 200 STRESS PERIOD 1
 20 TOTAL ITERATIONS

 SLN_10 OUTER ITERATION SUMMARY
 ----------------------------------------------------------------------------------------------------------
                                OUTER      INNER                    STEP   MAXIMUM CHANGE MODEL-(CELLID) OR
 OUTER ITERATION STEP       ITERATION  ITERATION  MAXIMUM CHANGE SUCCESS             MODEL-PACKAGE-(NUMBER)
 ----------------------------------------------------------------------------------------------------------
 Model                              1          2  3.17073483E-04                           10_GWT-(10,1,25)
 Model                              2          2  2.97962604E-06                           10_GWT-(10,1,25)
 Model                              3          1  8.30746635E-08       *                    10_GWT-(1,1,25)
 ----------------------------------------------------------------------------------------------------------


 3 CALLS TO NUMERICAL SOLUTION IN TIME STEP 200 STRESS PERIOD 1
 5 TOTAL ITERATIONS

 SLN_11 OUTER ITERATION SUMMARY
 ----------------------------------------------------------------------------------------------------------
                                OUTER      INNER                    STEP   MAXIMUM CHANGE MODEL-(CELLID) OR
 OUTER ITERATION STEP       ITERATION  ITERATION  MAXIMUM CHANGE SUCCESS             MODEL-PACKAGE-(NUMBER)
 ----------------------------------------------------------------------------------------------------------
 Model                              1          2 -4.32511497E-04                           11_GWT-(10,1,25)
 Model                              2          2 -4.06476637E-06                           11_GWT-(10,1,25)
 Model                              3          1 -1.15154648E-07       *                    11_GWT-(1,1,25)
 ----------------------------------------------------------------------------------------------------------


 3 CALLS TO NUMERICAL SOLUTION IN TIME STEP 200 STRESS PERIOD 1
 5 TOTAL ITERATIONS

 SLN_12 OUTER ITERATION SUMMARY
 ----------------------------------------------------------------------------------------------------------
                                OUTER      INNER                    STEP   MAXIMUM CHANGE MODEL-(CELLID) OR
 OUTER ITERATION STEP       ITERATION  ITERATION  MAXIMUM CHANGE SUCCESS             MODEL-PACKAGE-(NUMBER)
 ----------------------------------------------------------------------------------------------------------
 Model                              1          2 -1.63714159E-05                           12_GWT-(10,1,25)
 Model                              2          1 -1.53834366E-07       *                    12_GWT-(1,1,25)
 ----------------------------------------------------------------------------------------------------------


 2 CALLS TO NUMERICAL SOLUTION IN TIME STEP 200 STRESS PERIOD 1
 3 TOTAL ITERATIONS

 SLN_13 OUTER ITERATION SUMMARY
 ----------------------------------------------------------------------------------------------------------
                                OUTER      INNER                    STEP   MAXIMUM CHANGE MODEL-(CELLID) OR
 OUTER ITERATION STEP       ITERATION  ITERATION  MAXIMUM CHANGE SUCCESS             MODEL-PACKAGE-(NUMBER)
 ----------------------------------------------------------------------------------------------------------
 Model                              1          2  3.93070034E-05                           13_GWT-(10,1,25)
 Model                              2          1  3.74954852E-07       *                    13_GWT-(1,1,25)
 ----------------------------------------------------------------------------------------------------------


 2 CALLS TO NUMERICAL SOLUTION IN TIME STEP 200 STRESS PERIOD 1
 3 TOTAL ITERATIONS

 SLN_14 OUTER ITERATION SUMMARY
 ----------------------------------------------------------------------------------------------------------
                                OUTER      INNER                    STEP   MAXIMUM CHANGE MODEL-(CELLID) OR
 OUTER ITERATION STEP       ITERATION  ITERATION  MAXIMUM CHANGE SUCCESS             MODEL-PACKAGE-(NUMBER)
 ----------------------------------------------------------------------------------------------------------
 Model                              1          3  1.86548608E-02                           14_GWT-(10,1,25)
 Model                              2          2  1.83290575E-04                            14_GWT-(1,1,25)
 Model                              3          2  5.08232431E-06                           14_GWT-(10,1,25)
 Model                              4          1 -2.31327729E-07       *                    14_GWT-(2,1,24)
 ----------------------------------------------------------------------------------------------------------


 4 CALLS TO NUMERICAL SOLUTION IN TIME STEP 200 STRESS PERIOD 1
 8 TOTAL ITERATIONS

 SLN_15 OUTER ITERATION SUMMARY
 ----------------------------------------------------------------------------------------------------------
                                OUTER      INNER                    STEP   MAXIMUM CHANGE MODEL-(CELLID) OR
 OUTER ITERATION STEP       ITERATION  ITERATION  MAXIMUM CHANGE SUCCESS             MODEL-PACKAGE-(NUMBER)
 ----------------------------------------------------------------------------------------------------------
 Model                              1          3  2.22604424E-02                             15_GWT-(1,1,1)
 Model                              2          2  2.32724480E-04                             15_GWT-(1,1,2)
 Model                              3          2  2.42647649E-05                             15_GWT-(3,1,2)
 Model                              4          2  3.16016895E-06                             15_GWT-(3,1,2)
 Model                              5          1  4.19436823E-07       *                     15_GWT-(3,1,2)
 ----------------------------------------------------------------------------------------------------------


 5 CALLS TO NUMERICAL SOLUTION IN TIME STEP 200 STRESS PERIOD 1
 10 TOTAL ITERATIONS


 Solution SLN_1 summary
 ----------------------------------------------------------------------
 Total formulate time:  .000000000000000 seconds
 Total solution time:   .000000000000000 seconds



 Solution SLN_2 summary
 ----------------------------------------------------------------------
 Total formulate time:  .1718750000000000 seconds
 Total solution time:   .000000000000000 seconds



 Solution SLN_3 summary
 ----------------------------------------------------------------------
 Total formulate time:  .1562500000000000 seconds
 Total solution time:   .000000000000000 seconds



 Solution SLN_4 summary
 ----------------------------------------------------------------------
 Total formulate time:  .4687500000000000E-01 seconds
 Total solution time:   .000000000000000 seconds



 Solution SLN_5 summary
 ----------------------------------------------------------------------
 Total formulate time:  .2187500000000000 seconds
 Total solution time:   .000000000000000 seconds



 Solution SLN_6 summary
 ----------------------------------------------------------------------
 Total formulate time:  .6093750000000000 seconds
 Total solution time:   .000000000000000 seconds



 Solution SLN_7 summary
 ----------------------------------------------------------------------
 Total formulate time:  .2187500000000000 seconds
 Total solution time:   .000000000000000 seconds



 Solution SLN_8 summary
 ----------------------------------------------------------------------
 Total formulate time:  .1093750000000000 seconds
 Total solution time:   .000000000000000 seconds



 Solution SLN_9 summary
 ----------------------------------------------------------------------
 Total formulate time:  .1718750000000000 seconds
 Total solution time:   .000000000000000 seconds



 Solution SLN_10 summary
 ----------------------------------------------------------------------
 Total formulate time:  .6250000000000000E-01 seconds
 Total solution time:   .000000000000000 seconds



 Solution SLN_11 summary
 ----------------------------------------------------------------------
 Total formulate time:  .6250000000000000E-01 seconds
 Total solution time:   .000000000000000 seconds



 Solution SLN_12 summary
 ----------------------------------------------------------------------
 Total formulate time:  .7812500000000000E-01 seconds
 Total solution time:   .000000000000000 seconds



 Solution SLN_13 summary
 ----------------------------------------------------------------------
 Total formulate time:  .4687500000000000E-01 seconds
 Total solution time:   .000000000000000 seconds



 Solution SLN_14 summary
 ----------------------------------------------------------------------
 Total formulate time:  .7812500000000000E-01 seconds
 Total solution time:   .000000000000000 seconds



 Solution SLN_15 summary
 ----------------------------------------------------------------------
 Total formulate time:  .1250000000000000 seconds
 Total solution time:   .000000000000000 seconds


 MEMORY MANAGER TOTAL STORAGE BY DATA TYPE, IN MEGABYTES
 -------------------------------
                    ALLOCATED   
 DATA TYPE           MEMORY     
 -------------------------------
 Character        0.30739500    
 Logical          4.80000000E-04
 Integer          3.4883400     
 Real             9.7914000     
 -------------------------------
 Total            13.587615     
 Virtual          0.0000000     
 -------------------------------


 
 Run end date and time (yyyy/mm/dd hh:mm:ss): 2024/07/12  9:44:54
 Elapsed run time: 49.083 Seconds
 Normal termination of simulation.
