                                   MODFLOW 6
                U.S. GEOLOGICAL SURVEY MODULAR HYDROLOGIC MODEL
                VERSION 6.5.0.dev0+prt (preliminary) 10/07/2023
                               ***DEVELOP MODE***

   MODFLOW 6 compiled Oct 07 2023 02:19:02 with Intel(R) Fortran Intel(R) 64
   Compiler Classic for applications running on Intel(R) 64, Version 2021.7.0
                             Build 20220726_000000

This software is preliminary or provisional and is subject to 
revision. It is being provided to meet the need for timely best 
science. The software has not received final approval by the U.S. 
Geological Survey (USGS). No warranty, expressed or implied, is made 
by the USGS or the U.S. Government as to the functionality of the 
software and related material nor shall the fact of release 
constitute any such warranty. The software is provided on the 
condition that neither the USGS nor the U.S. Government shall be held 
liable for any damages resulting from the authorized or unauthorized 
use of the software.


As a work of the United States Government, this USGS product is 
in the public domain within the United States. You can copy, 
modify, distribute, and perform the work, even for commercial 
purposes, all without asking permission. Additionally, USGS 
waives copyright and related rights in the work worldwide 
through CC0 1.0 Universal Public Domain Dedication 
(https://creativecommons.org/publicdomain/zero/1.0/).

The following GNU Lesser General Public License (LGPL) libraries
are used in this USGS product:

    SPARSKIT version 2.0
      ilut, luson, and qsplit 
      (https://www-users.cse.umn.edu/~saad/software/SPARSKIT/)

    RCM - Reverse Cuthill McKee Ordering
      (https://people.math.sc.edu/Burkardt/f_src/rcm/rcm.html)

    BLAS - Basic Linear Algebra Subprograms Level 1
      (https://people.math.sc.edu/Burkardt/f_src/blas1_d/blas1_d.html)

    SPARSEKIT - Sparse Matrix Utility Package
      amux, dperm, dvperm, rperm, and cperm
      (https://people.sc.fsu.edu/~jburkardt/f77_src/sparsekit/sparsekit.html)

The following BSD-3 License libraries are used in this USGS product:

    Modern Fortran DAG Library
      Copyright (c) 2018, Jacob Williams
      All rights reserved.
      (https://github.com/jacobwilliams/daglib)

MODFLOW 6 compiler options: /Isrc\libmf6core.a.p /Isrc /I..\src
/Isrc\libmf6_external.a.p /MTd /nologo /warn:general /warn:truncated_source
/stand:f08 /Zi /traceback /O2 /fpe:0 /heap-arrays:0 /traceback /fpp
/Qdiag-disable:7416 /Qdiag-disable:7025 /Qdiag-disable:5268
/Fdsrc\libmf6core.a.p\Utilities_compilerversion.F90.pdb
/module:src\libmf6core.a.p
/Fosrc/libmf6core.a.p/Utilities_compilerversion.F90.obj /c

System command used to initiate simulation:
c:\Users\portega\anaconda3\envs\mf6rtm\python.exe -m ipykernel_launcher --f=c:\Users\portega\AppData\Roaming\jupyter\runtime\kernel-v2-51408na7dKTn0i5X.json

MODFLOW was compiled using uniform precision.

Real Variables
  KIND: 8
  TINY (smallest non-zero value):    2.225074-308
  HUGE (largest value):    1.797693+308
  PRECISION: 15
  SIZE IN BITS: 64

Integer Variables
  KIND: 4
  HUGE (largest value): 2147483647
  SIZE IN BITS: 32

Long Integer Variables
  KIND: 8
  HUGE (largest value): 9223372036854775807
  SIZE IN BITS: 64

Logical Variables
  KIND: 4
  SIZE IN BITS: 32
 

 OPENED mfsim.nam
 FILE TYPE:NAM6      UNIT ****   STATUS:OLD                 
 FORMAT:FORMATTED              ACCESS:SEQUENTIAL          
 ACTION:READ                

 # File generated by Flopy version 3.5.0.dev0 on 07/04/2024 at 16:27:56.

 OPENED gwf.nam
 FILE TYPE:GWF6      UNIT ****   STATUS:OLD                 
 FORMAT:FORMATTED              ACCESS:SEQUENTIAL          
 ACTION:READ                

 # File generated by Flopy version 3.5.0.dev0 on 07/04/2024 at 16:27:57.

 OPENED gwf.dis
 FILE TYPE:DIS6      UNIT ****   STATUS:OLD                 
 FORMAT:FORMATTED              ACCESS:SEQUENTIAL          
 ACTION:READ                

 # File generated by Flopy version 3.5.0.dev0 on 07/04/2024 at 16:27:57.

 OPENED gwf.npf
 FILE TYPE:NPF6      UNIT ****   STATUS:OLD                 
 FORMAT:FORMATTED              ACCESS:SEQUENTIAL          
 ACTION:READ                

 # File generated by Flopy version 3.5.0.dev0 on 07/04/2024 at 16:27:57.

 OPENED gwf.ic
 FILE TYPE:IC6       UNIT ****   STATUS:OLD                 
 FORMAT:FORMATTED              ACCESS:SEQUENTIAL          
 ACTION:READ                


 OPENED gwf.oc
 FILE TYPE:OC6       UNIT ****   STATUS:OLD                 
 FORMAT:FORMATTED              ACCESS:SEQUENTIAL          
 ACTION:READ                


 OPENED gwf.chd
 FILE TYPE:CHD6      UNIT ****   STATUS:OLD                 
 FORMAT:FORMATTED              ACCESS:SEQUENTIAL          
 ACTION:READ                

 # File generated by Flopy version 3.5.0.dev0 on 07/04/2024 at 16:27:57.

 OPENED gwf.chdtail
 FILE TYPE:CHD6      UNIT ****   STATUS:OLD                 
 FORMAT:FORMATTED              ACCESS:SEQUENTIAL          
 ACTION:READ                

 # File generated by Flopy version 3.5.0.dev0 on 07/04/2024 at 16:27:57.
    AUXILIARY  VARIABLE: H               
    AUXILIARY  VARIABLE: O               
    AUXILIARY  VARIABLE: CHARGE          
    AUXILIARY  VARIABLE: AL              
    AUXILIARY  VARIABLE: C               
    AUXILIARY  VARIABLE: CA              
    AUXILIARY  VARIABLE: CL              
    AUXILIARY  VARIABLE: FE              
    AUXILIARY  VARIABLE: K               
    AUXILIARY  VARIABLE: MG              
    AUXILIARY  VARIABLE: MN              
    AUXILIARY  VARIABLE: NA              
    AUXILIARY  VARIABLE: S               
    AUXILIARY  VARIABLE: SI              

 OPENED H.nam
 FILE TYPE:GWT6      UNIT ****   STATUS:OLD                 
 FORMAT:FORMATTED              ACCESS:SEQUENTIAL          
 ACTION:READ                

 # File generated by Flopy version 3.5.0.dev0 on 07/04/2024 at 16:27:57.

 OPENED H.dis
 FILE TYPE:DIS6      UNIT ****   STATUS:OLD                 
 FORMAT:FORMATTED              ACCESS:SEQUENTIAL          
 ACTION:READ                

 # File generated by Flopy version 3.5.0.dev0 on 07/04/2024 at 16:27:57.

 OPENED H.ic
 FILE TYPE:IC6       UNIT ****   STATUS:OLD                 
 FORMAT:FORMATTED              ACCESS:SEQUENTIAL          
 ACTION:READ                


 OPENED H.mst
 FILE TYPE:MST6      UNIT ****   STATUS:OLD                 
 FORMAT:FORMATTED              ACCESS:SEQUENTIAL          
 ACTION:READ                


 OPENED H.adv
 FILE TYPE:ADV6      UNIT ****   STATUS:OLD                 
 FORMAT:FORMATTED              ACCESS:SEQUENTIAL          
 ACTION:READ                


 OPENED H.dsp
 FILE TYPE:DSP6      UNIT ****   STATUS:OLD                 
 FORMAT:FORMATTED              ACCESS:SEQUENTIAL          
 ACTION:READ                

 # File generated by Flopy version 3.5.0.dev0 on 07/04/2024 at 16:27:57.

 OPENED H.ssm
 FILE TYPE:SSM6      UNIT ****   STATUS:OLD                 
 FORMAT:FORMATTED              ACCESS:SEQUENTIAL          
 ACTION:READ                


 OPENED H.oc
 FILE TYPE:OC6       UNIT ****   STATUS:OLD                 
 FORMAT:FORMATTED              ACCESS:SEQUENTIAL          
 ACTION:READ                


 OPENED H.cnc
 FILE TYPE:CNC6      UNIT ****   STATUS:OLD                 
 FORMAT:FORMATTED              ACCESS:SEQUENTIAL          
 ACTION:READ                


 OPENED O.nam
 FILE TYPE:GWT6      UNIT ****   STATUS:OLD                 
 FORMAT:FORMATTED              ACCESS:SEQUENTIAL          
 ACTION:READ                

 # File generated by Flopy version 3.5.0.dev0 on 07/04/2024 at 16:27:57.

 OPENED O.dis
 FILE TYPE:DIS6      UNIT ****   STATUS:OLD                 
 FORMAT:FORMATTED              ACCESS:SEQUENTIAL          
 ACTION:READ                

 # File generated by Flopy version 3.5.0.dev0 on 07/04/2024 at 16:27:57.

 OPENED O.ic
 FILE TYPE:IC6       UNIT ****   STATUS:OLD                 
 FORMAT:FORMATTED              ACCESS:SEQUENTIAL          
 ACTION:READ                


 OPENED O.mst
 FILE TYPE:MST6      UNIT ****   STATUS:OLD                 
 FORMAT:FORMATTED              ACCESS:SEQUENTIAL          
 ACTION:READ                


 OPENED O.adv
 FILE TYPE:ADV6      UNIT ****   STATUS:OLD                 
 FORMAT:FORMATTED              ACCESS:SEQUENTIAL          
 ACTION:READ                


 OPENED O.dsp
 FILE TYPE:DSP6      UNIT ****   STATUS:OLD                 
 FORMAT:FORMATTED              ACCESS:SEQUENTIAL          
 ACTION:READ                

 # File generated by Flopy version 3.5.0.dev0 on 07/04/2024 at 16:27:57.

 OPENED O.ssm
 FILE TYPE:SSM6      UNIT ****   STATUS:OLD                 
 FORMAT:FORMATTED              ACCESS:SEQUENTIAL          
 ACTION:READ                


 OPENED O.oc
 FILE TYPE:OC6       UNIT ****   STATUS:OLD                 
 FORMAT:FORMATTED              ACCESS:SEQUENTIAL          
 ACTION:READ                


 OPENED O.cnc
 FILE TYPE:CNC6      UNIT ****   STATUS:OLD                 
 FORMAT:FORMATTED              ACCESS:SEQUENTIAL          
 ACTION:READ                


 OPENED Charge.nam
 FILE TYPE:GWT6      UNIT ****   STATUS:OLD                 
 FORMAT:FORMATTED              ACCESS:SEQUENTIAL          
 ACTION:READ                

 # File generated by Flopy version 3.5.0.dev0 on 07/04/2024 at 16:27:57.

 OPENED Charge.dis
 FILE TYPE:DIS6      UNIT ****   STATUS:OLD                 
 FORMAT:FORMATTED              ACCESS:SEQUENTIAL          
 ACTION:READ                

 # File generated by Flopy version 3.5.0.dev0 on 07/04/2024 at 16:27:57.

 OPENED Charge.ic
 FILE TYPE:IC6       UNIT ****   STATUS:OLD                 
 FORMAT:FORMATTED              ACCESS:SEQUENTIAL          
 ACTION:READ                


 OPENED Charge.mst
 FILE TYPE:MST6      UNIT ****   STATUS:OLD                 
 FORMAT:FORMATTED              ACCESS:SEQUENTIAL          
 ACTION:READ                


 OPENED Charge.adv
 FILE TYPE:ADV6      UNIT ****   STATUS:OLD                 
 FORMAT:FORMATTED              ACCESS:SEQUENTIAL          
 ACTION:READ                


 OPENED Charge.dsp
 FILE TYPE:DSP6      UNIT ****   STATUS:OLD                 
 FORMAT:FORMATTED              ACCESS:SEQUENTIAL          
 ACTION:READ                

 # File generated by Flopy version 3.5.0.dev0 on 07/04/2024 at 16:27:57.

 OPENED Charge.ssm
 FILE TYPE:SSM6      UNIT ****   STATUS:OLD                 
 FORMAT:FORMATTED              ACCESS:SEQUENTIAL          
 ACTION:READ                


 OPENED Charge.oc
 FILE TYPE:OC6       UNIT ****   STATUS:OLD                 
 FORMAT:FORMATTED              ACCESS:SEQUENTIAL          
 ACTION:READ                


 OPENED Charge.cnc
 FILE TYPE:CNC6      UNIT ****   STATUS:OLD                 
 FORMAT:FORMATTED              ACCESS:SEQUENTIAL          
 ACTION:READ                


 OPENED Al.nam
 FILE TYPE:GWT6      UNIT ****   STATUS:OLD                 
 FORMAT:FORMATTED              ACCESS:SEQUENTIAL          
 ACTION:READ                

 # File generated by Flopy version 3.5.0.dev0 on 07/04/2024 at 16:27:57.

 OPENED Al.dis
 FILE TYPE:DIS6      UNIT ****   STATUS:OLD                 
 FORMAT:FORMATTED              ACCESS:SEQUENTIAL          
 ACTION:READ                

 # File generated by Flopy version 3.5.0.dev0 on 07/04/2024 at 16:27:57.

 OPENED Al.ic
 FILE TYPE:IC6       UNIT ****   STATUS:OLD                 
 FORMAT:FORMATTED              ACCESS:SEQUENTIAL          
 ACTION:READ                


 OPENED Al.mst
 FILE TYPE:MST6      UNIT ****   STATUS:OLD                 
 FORMAT:FORMATTED              ACCESS:SEQUENTIAL          
 ACTION:READ                


 OPENED Al.adv
 FILE TYPE:ADV6      UNIT ****   STATUS:OLD                 
 FORMAT:FORMATTED              ACCESS:SEQUENTIAL          
 ACTION:READ                


 OPENED Al.dsp
 FILE TYPE:DSP6      UNIT ****   STATUS:OLD                 
 FORMAT:FORMATTED              ACCESS:SEQUENTIAL          
 ACTION:READ                

 # File generated by Flopy version 3.5.0.dev0 on 07/04/2024 at 16:27:57.

 OPENED Al.ssm
 FILE TYPE:SSM6      UNIT ****   STATUS:OLD                 
 FORMAT:FORMATTED              ACCESS:SEQUENTIAL          
 ACTION:READ                


 OPENED Al.oc
 FILE TYPE:OC6       UNIT ****   STATUS:OLD                 
 FORMAT:FORMATTED              ACCESS:SEQUENTIAL          
 ACTION:READ                


 OPENED Al.cnc
 FILE TYPE:CNC6      UNIT ****   STATUS:OLD                 
 FORMAT:FORMATTED              ACCESS:SEQUENTIAL          
 ACTION:READ                


 OPENED C.nam
 FILE TYPE:GWT6      UNIT ****   STATUS:OLD                 
 FORMAT:FORMATTED              ACCESS:SEQUENTIAL          
 ACTION:READ                

 # File generated by Flopy version 3.5.0.dev0 on 07/04/2024 at 16:27:57.

 OPENED C.dis
 FILE TYPE:DIS6      UNIT ****   STATUS:OLD                 
 FORMAT:FORMATTED              ACCESS:SEQUENTIAL          
 ACTION:READ                

 # File generated by Flopy version 3.5.0.dev0 on 07/04/2024 at 16:27:57.

 OPENED C.ic
 FILE TYPE:IC6       UNIT ****   STATUS:OLD                 
 FORMAT:FORMATTED              ACCESS:SEQUENTIAL          
 ACTION:READ                


 OPENED C.mst
 FILE TYPE:MST6      UNIT ****   STATUS:OLD                 
 FORMAT:FORMATTED              ACCESS:SEQUENTIAL          
 ACTION:READ                


 OPENED C.adv
 FILE TYPE:ADV6      UNIT ****   STATUS:OLD                 
 FORMAT:FORMATTED              ACCESS:SEQUENTIAL          
 ACTION:READ                


 OPENED C.dsp
 FILE TYPE:DSP6      UNIT ****   STATUS:OLD                 
 FORMAT:FORMATTED              ACCESS:SEQUENTIAL          
 ACTION:READ                

 # File generated by Flopy version 3.5.0.dev0 on 07/04/2024 at 16:27:57.

 OPENED C.ssm
 FILE TYPE:SSM6      UNIT ****   STATUS:OLD                 
 FORMAT:FORMATTED              ACCESS:SEQUENTIAL          
 ACTION:READ                


 OPENED C.oc
 FILE TYPE:OC6       UNIT ****   STATUS:OLD                 
 FORMAT:FORMATTED              ACCESS:SEQUENTIAL          
 ACTION:READ                


 OPENED C.cnc
 FILE TYPE:CNC6      UNIT ****   STATUS:OLD                 
 FORMAT:FORMATTED              ACCESS:SEQUENTIAL          
 ACTION:READ                


 OPENED Ca.nam
 FILE TYPE:GWT6      UNIT ****   STATUS:OLD                 
 FORMAT:FORMATTED              ACCESS:SEQUENTIAL          
 ACTION:READ                

 # File generated by Flopy version 3.5.0.dev0 on 07/04/2024 at 16:27:57.

 OPENED Ca.dis
 FILE TYPE:DIS6      UNIT ****   STATUS:OLD                 
 FORMAT:FORMATTED              ACCESS:SEQUENTIAL          
 ACTION:READ                

 # File generated by Flopy version 3.5.0.dev0 on 07/04/2024 at 16:27:57.

 OPENED Ca.ic
 FILE TYPE:IC6       UNIT ****   STATUS:OLD                 
 FORMAT:FORMATTED              ACCESS:SEQUENTIAL          
 ACTION:READ                


 OPENED Ca.mst
 FILE TYPE:MST6      UNIT ****   STATUS:OLD                 
 FORMAT:FORMATTED              ACCESS:SEQUENTIAL          
 ACTION:READ                


 OPENED Ca.adv
 FILE TYPE:ADV6      UNIT ****   STATUS:OLD                 
 FORMAT:FORMATTED              ACCESS:SEQUENTIAL          
 ACTION:READ                


 OPENED Ca.dsp
 FILE TYPE:DSP6      UNIT ****   STATUS:OLD                 
 FORMAT:FORMATTED              ACCESS:SEQUENTIAL          
 ACTION:READ                

 # File generated by Flopy version 3.5.0.dev0 on 07/04/2024 at 16:27:57.

 OPENED Ca.ssm
 FILE TYPE:SSM6      UNIT ****   STATUS:OLD                 
 FORMAT:FORMATTED              ACCESS:SEQUENTIAL          
 ACTION:READ                


 OPENED Ca.oc
 FILE TYPE:OC6       UNIT ****   STATUS:OLD                 
 FORMAT:FORMATTED              ACCESS:SEQUENTIAL          
 ACTION:READ                


 OPENED Ca.cnc
 FILE TYPE:CNC6      UNIT ****   STATUS:OLD                 
 FORMAT:FORMATTED              ACCESS:SEQUENTIAL          
 ACTION:READ                


 OPENED Cl.nam
 FILE TYPE:GWT6      UNIT ****   STATUS:OLD                 
 FORMAT:FORMATTED              ACCESS:SEQUENTIAL          
 ACTION:READ                

 # File generated by Flopy version 3.5.0.dev0 on 07/04/2024 at 16:27:57.

 OPENED Cl.dis
 FILE TYPE:DIS6      UNIT ****   STATUS:OLD                 
 FORMAT:FORMATTED              ACCESS:SEQUENTIAL          
 ACTION:READ                

 # File generated by Flopy version 3.5.0.dev0 on 07/04/2024 at 16:27:57.

 OPENED Cl.ic
 FILE TYPE:IC6       UNIT ****   STATUS:OLD                 
 FORMAT:FORMATTED              ACCESS:SEQUENTIAL          
 ACTION:READ                


 OPENED Cl.mst
 FILE TYPE:MST6      UNIT ****   STATUS:OLD                 
 FORMAT:FORMATTED              ACCESS:SEQUENTIAL          
 ACTION:READ                


 OPENED Cl.adv
 FILE TYPE:ADV6      UNIT ****   STATUS:OLD                 
 FORMAT:FORMATTED              ACCESS:SEQUENTIAL          
 ACTION:READ                


 OPENED Cl.dsp
 FILE TYPE:DSP6      UNIT ****   STATUS:OLD                 
 FORMAT:FORMATTED              ACCESS:SEQUENTIAL          
 ACTION:READ                

 # File generated by Flopy version 3.5.0.dev0 on 07/04/2024 at 16:27:57.

 OPENED Cl.ssm
 FILE TYPE:SSM6      UNIT ****   STATUS:OLD                 
 FORMAT:FORMATTED              ACCESS:SEQUENTIAL          
 ACTION:READ                


 OPENED Cl.oc
 FILE TYPE:OC6       UNIT ****   STATUS:OLD                 
 FORMAT:FORMATTED              ACCESS:SEQUENTIAL          
 ACTION:READ                


 OPENED Cl.cnc
 FILE TYPE:CNC6      UNIT ****   STATUS:OLD                 
 FORMAT:FORMATTED              ACCESS:SEQUENTIAL          
 ACTION:READ                


 OPENED Fe.nam
 FILE TYPE:GWT6      UNIT ****   STATUS:OLD                 
 FORMAT:FORMATTED              ACCESS:SEQUENTIAL          
 ACTION:READ                

 # File generated by Flopy version 3.5.0.dev0 on 07/04/2024 at 16:27:57.

 OPENED Fe.dis
 FILE TYPE:DIS6      UNIT ****   STATUS:OLD                 
 FORMAT:FORMATTED              ACCESS:SEQUENTIAL          
 ACTION:READ                

 # File generated by Flopy version 3.5.0.dev0 on 07/04/2024 at 16:27:57.

 OPENED Fe.ic
 FILE TYPE:IC6       UNIT ****   STATUS:OLD                 
 FORMAT:FORMATTED              ACCESS:SEQUENTIAL          
 ACTION:READ                


 OPENED Fe.mst
 FILE TYPE:MST6      UNIT ****   STATUS:OLD                 
 FORMAT:FORMATTED              ACCESS:SEQUENTIAL          
 ACTION:READ                


 OPENED Fe.adv
 FILE TYPE:ADV6      UNIT ****   STATUS:OLD                 
 FORMAT:FORMATTED              ACCESS:SEQUENTIAL          
 ACTION:READ                


 OPENED Fe.dsp
 FILE TYPE:DSP6      UNIT ****   STATUS:OLD                 
 FORMAT:FORMATTED              ACCESS:SEQUENTIAL          
 ACTION:READ                

 # File generated by Flopy version 3.5.0.dev0 on 07/04/2024 at 16:27:57.

 OPENED Fe.ssm
 FILE TYPE:SSM6      UNIT ****   STATUS:OLD                 
 FORMAT:FORMATTED              ACCESS:SEQUENTIAL          
 ACTION:READ                


 OPENED Fe.oc
 FILE TYPE:OC6       UNIT ****   STATUS:OLD                 
 FORMAT:FORMATTED              ACCESS:SEQUENTIAL          
 ACTION:READ                


 OPENED Fe.cnc
 FILE TYPE:CNC6      UNIT ****   STATUS:OLD                 
 FORMAT:FORMATTED              ACCESS:SEQUENTIAL          
 ACTION:READ                


 OPENED K.nam
 FILE TYPE:GWT6      UNIT ****   STATUS:OLD                 
 FORMAT:FORMATTED              ACCESS:SEQUENTIAL          
 ACTION:READ                

 # File generated by Flopy version 3.5.0.dev0 on 07/04/2024 at 16:27:57.

 OPENED K.dis
 FILE TYPE:DIS6      UNIT ****   STATUS:OLD                 
 FORMAT:FORMATTED              ACCESS:SEQUENTIAL          
 ACTION:READ                

 # File generated by Flopy version 3.5.0.dev0 on 07/04/2024 at 16:27:57.

 OPENED K.ic
 FILE TYPE:IC6       UNIT ****   STATUS:OLD                 
 FORMAT:FORMATTED              ACCESS:SEQUENTIAL          
 ACTION:READ                


 OPENED K.mst
 FILE TYPE:MST6      UNIT ****   STATUS:OLD                 
 FORMAT:FORMATTED              ACCESS:SEQUENTIAL          
 ACTION:READ                


 OPENED K.adv
 FILE TYPE:ADV6      UNIT ****   STATUS:OLD                 
 FORMAT:FORMATTED              ACCESS:SEQUENTIAL          
 ACTION:READ                


 OPENED K.dsp
 FILE TYPE:DSP6      UNIT ****   STATUS:OLD                 
 FORMAT:FORMATTED              ACCESS:SEQUENTIAL          
 ACTION:READ                

 # File generated by Flopy version 3.5.0.dev0 on 07/04/2024 at 16:27:57.

 OPENED K.ssm
 FILE TYPE:SSM6      UNIT ****   STATUS:OLD                 
 FORMAT:FORMATTED              ACCESS:SEQUENTIAL          
 ACTION:READ                


 OPENED K.oc
 FILE TYPE:OC6       UNIT ****   STATUS:OLD                 
 FORMAT:FORMATTED              ACCESS:SEQUENTIAL          
 ACTION:READ                


 OPENED K.cnc
 FILE TYPE:CNC6      UNIT ****   STATUS:OLD                 
 FORMAT:FORMATTED              ACCESS:SEQUENTIAL          
 ACTION:READ                


 OPENED Mg.nam
 FILE TYPE:GWT6      UNIT ****   STATUS:OLD                 
 FORMAT:FORMATTED              ACCESS:SEQUENTIAL          
 ACTION:READ                

 # File generated by Flopy version 3.5.0.dev0 on 07/04/2024 at 16:27:57.

 OPENED Mg.dis
 FILE TYPE:DIS6      UNIT ****   STATUS:OLD                 
 FORMAT:FORMATTED              ACCESS:SEQUENTIAL          
 ACTION:READ                

 # File generated by Flopy version 3.5.0.dev0 on 07/04/2024 at 16:27:57.

 OPENED Mg.ic
 FILE TYPE:IC6       UNIT ****   STATUS:OLD                 
 FORMAT:FORMATTED              ACCESS:SEQUENTIAL          
 ACTION:READ                


 OPENED Mg.mst
 FILE TYPE:MST6      UNIT ****   STATUS:OLD                 
 FORMAT:FORMATTED              ACCESS:SEQUENTIAL          
 ACTION:READ                


 OPENED Mg.adv
 FILE TYPE:ADV6      UNIT ****   STATUS:OLD                 
 FORMAT:FORMATTED              ACCESS:SEQUENTIAL          
 ACTION:READ                


 OPENED Mg.dsp
 FILE TYPE:DSP6      UNIT ****   STATUS:OLD                 
 FORMAT:FORMATTED              ACCESS:SEQUENTIAL          
 ACTION:READ                

 # File generated by Flopy version 3.5.0.dev0 on 07/04/2024 at 16:27:57.

 OPENED Mg.ssm
 FILE TYPE:SSM6      UNIT ****   STATUS:OLD                 
 FORMAT:FORMATTED              ACCESS:SEQUENTIAL          
 ACTION:READ                


 OPENED Mg.oc
 FILE TYPE:OC6       UNIT ****   STATUS:OLD                 
 FORMAT:FORMATTED              ACCESS:SEQUENTIAL          
 ACTION:READ                


 OPENED Mg.cnc
 FILE TYPE:CNC6      UNIT ****   STATUS:OLD                 
 FORMAT:FORMATTED              ACCESS:SEQUENTIAL          
 ACTION:READ                


 OPENED Mn.nam
 FILE TYPE:GWT6      UNIT ****   STATUS:OLD                 
 FORMAT:FORMATTED              ACCESS:SEQUENTIAL          
 ACTION:READ                

 # File generated by Flopy version 3.5.0.dev0 on 07/04/2024 at 16:27:57.

 OPENED Mn.dis
 FILE TYPE:DIS6      UNIT ****   STATUS:OLD                 
 FORMAT:FORMATTED              ACCESS:SEQUENTIAL          
 ACTION:READ                

 # File generated by Flopy version 3.5.0.dev0 on 07/04/2024 at 16:27:57.

 OPENED Mn.ic
 FILE TYPE:IC6       UNIT ****   STATUS:OLD                 
 FORMAT:FORMATTED              ACCESS:SEQUENTIAL          
 ACTION:READ                


 OPENED Mn.mst
 FILE TYPE:MST6      UNIT ****   STATUS:OLD                 
 FORMAT:FORMATTED              ACCESS:SEQUENTIAL          
 ACTION:READ                


 OPENED Mn.adv
 FILE TYPE:ADV6      UNIT ****   STATUS:OLD                 
 FORMAT:FORMATTED              ACCESS:SEQUENTIAL          
 ACTION:READ                


 OPENED Mn.dsp
 FILE TYPE:DSP6      UNIT ****   STATUS:OLD                 
 FORMAT:FORMATTED              ACCESS:SEQUENTIAL          
 ACTION:READ                

 # File generated by Flopy version 3.5.0.dev0 on 07/04/2024 at 16:27:57.

 OPENED Mn.ssm
 FILE TYPE:SSM6      UNIT ****   STATUS:OLD                 
 FORMAT:FORMATTED              ACCESS:SEQUENTIAL          
 ACTION:READ                


 OPENED Mn.oc
 FILE TYPE:OC6       UNIT ****   STATUS:OLD                 
 FORMAT:FORMATTED              ACCESS:SEQUENTIAL          
 ACTION:READ                


 OPENED Mn.cnc
 FILE TYPE:CNC6      UNIT ****   STATUS:OLD                 
 FORMAT:FORMATTED              ACCESS:SEQUENTIAL          
 ACTION:READ                


 OPENED Na.nam
 FILE TYPE:GWT6      UNIT ****   STATUS:OLD                 
 FORMAT:FORMATTED              ACCESS:SEQUENTIAL          
 ACTION:READ                

 # File generated by Flopy version 3.5.0.dev0 on 07/04/2024 at 16:27:57.

 OPENED Na.dis
 FILE TYPE:DIS6      UNIT ****   STATUS:OLD                 
 FORMAT:FORMATTED              ACCESS:SEQUENTIAL          
 ACTION:READ                

 # File generated by Flopy version 3.5.0.dev0 on 07/04/2024 at 16:27:57.

 OPENED Na.ic
 FILE TYPE:IC6       UNIT ****   STATUS:OLD                 
 FORMAT:FORMATTED              ACCESS:SEQUENTIAL          
 ACTION:READ                


 OPENED Na.mst
 FILE TYPE:MST6      UNIT ****   STATUS:OLD                 
 FORMAT:FORMATTED              ACCESS:SEQUENTIAL          
 ACTION:READ                


 OPENED Na.adv
 FILE TYPE:ADV6      UNIT ****   STATUS:OLD                 
 FORMAT:FORMATTED              ACCESS:SEQUENTIAL          
 ACTION:READ                


 OPENED Na.dsp
 FILE TYPE:DSP6      UNIT ****   STATUS:OLD                 
 FORMAT:FORMATTED              ACCESS:SEQUENTIAL          
 ACTION:READ                

 # File generated by Flopy version 3.5.0.dev0 on 07/04/2024 at 16:27:57.

 OPENED Na.ssm
 FILE TYPE:SSM6      UNIT ****   STATUS:OLD                 
 FORMAT:FORMATTED              ACCESS:SEQUENTIAL          
 ACTION:READ                


 OPENED Na.oc
 FILE TYPE:OC6       UNIT ****   STATUS:OLD                 
 FORMAT:FORMATTED              ACCESS:SEQUENTIAL          
 ACTION:READ                


 OPENED Na.cnc
 FILE TYPE:CNC6      UNIT ****   STATUS:OLD                 
 FORMAT:FORMATTED              ACCESS:SEQUENTIAL          
 ACTION:READ                


 OPENED S.nam
 FILE TYPE:GWT6      UNIT ****   STATUS:OLD                 
 FORMAT:FORMATTED              ACCESS:SEQUENTIAL          
 ACTION:READ                

 # File generated by Flopy version 3.5.0.dev0 on 07/04/2024 at 16:27:57.

 OPENED S.dis
 FILE TYPE:DIS6      UNIT ****   STATUS:OLD                 
 FORMAT:FORMATTED              ACCESS:SEQUENTIAL          
 ACTION:READ                

 # File generated by Flopy version 3.5.0.dev0 on 07/04/2024 at 16:27:57.

 OPENED S.ic
 FILE TYPE:IC6       UNIT ****   STATUS:OLD                 
 FORMAT:FORMATTED              ACCESS:SEQUENTIAL          
 ACTION:READ                


 OPENED S.mst
 FILE TYPE:MST6      UNIT ****   STATUS:OLD                 
 FORMAT:FORMATTED              ACCESS:SEQUENTIAL          
 ACTION:READ                


 OPENED S.adv
 FILE TYPE:ADV6      UNIT ****   STATUS:OLD                 
 FORMAT:FORMATTED              ACCESS:SEQUENTIAL          
 ACTION:READ                


 OPENED S.dsp
 FILE TYPE:DSP6      UNIT ****   STATUS:OLD                 
 FORMAT:FORMATTED              ACCESS:SEQUENTIAL          
 ACTION:READ                

 # File generated by Flopy version 3.5.0.dev0 on 07/04/2024 at 16:27:57.

 OPENED S.ssm
 FILE TYPE:SSM6      UNIT ****   STATUS:OLD                 
 FORMAT:FORMATTED              ACCESS:SEQUENTIAL          
 ACTION:READ                


 OPENED S.oc
 FILE TYPE:OC6       UNIT ****   STATUS:OLD                 
 FORMAT:FORMATTED              ACCESS:SEQUENTIAL          
 ACTION:READ                


 OPENED S.cnc
 FILE TYPE:CNC6      UNIT ****   STATUS:OLD                 
 FORMAT:FORMATTED              ACCESS:SEQUENTIAL          
 ACTION:READ                


 OPENED Si.nam
 FILE TYPE:GWT6      UNIT ****   STATUS:OLD                 
 FORMAT:FORMATTED              ACCESS:SEQUENTIAL          
 ACTION:READ                

 # File generated by Flopy version 3.5.0.dev0 on 07/04/2024 at 16:27:57.

 OPENED Si.dis
 FILE TYPE:DIS6      UNIT ****   STATUS:OLD                 
 FORMAT:FORMATTED              ACCESS:SEQUENTIAL          
 ACTION:READ                

 # File generated by Flopy version 3.5.0.dev0 on 07/04/2024 at 16:27:57.

 OPENED Si.ic
 FILE TYPE:IC6       UNIT ****   STATUS:OLD                 
 FORMAT:FORMATTED              ACCESS:SEQUENTIAL          
 ACTION:READ                


 OPENED Si.mst
 FILE TYPE:MST6      UNIT ****   STATUS:OLD                 
 FORMAT:FORMATTED              ACCESS:SEQUENTIAL          
 ACTION:READ                


 OPENED Si.adv
 FILE TYPE:ADV6      UNIT ****   STATUS:OLD                 
 FORMAT:FORMATTED              ACCESS:SEQUENTIAL          
 ACTION:READ                


 OPENED Si.dsp
 FILE TYPE:DSP6      UNIT ****   STATUS:OLD                 
 FORMAT:FORMATTED              ACCESS:SEQUENTIAL          
 ACTION:READ                

 # File generated by Flopy version 3.5.0.dev0 on 07/04/2024 at 16:27:57.

 OPENED Si.ssm
 FILE TYPE:SSM6      UNIT ****   STATUS:OLD                 
 FORMAT:FORMATTED              ACCESS:SEQUENTIAL          
 ACTION:READ                


 OPENED Si.oc
 FILE TYPE:OC6       UNIT ****   STATUS:OLD                 
 FORMAT:FORMATTED              ACCESS:SEQUENTIAL          
 ACTION:READ                


 OPENED Si.cnc
 FILE TYPE:CNC6      UNIT ****   STATUS:OLD                 
 FORMAT:FORMATTED              ACCESS:SEQUENTIAL          
 ACTION:READ                


 READING SIMULATION OPTIONS
    MAXIMUM NUMBER OF ERRORS THAT WILL BE STORED IS 1000
 END OF SIMULATION OPTIONS

 READING SIMULATION TIMING

 OPENED walter1994.tdis
 FILE TYPE:TDIS   UNIT ****   STATUS:OLD                 
 FORMAT:FORMATTED              ACCESS:SEQUENTIAL          
 ACTION:READ                


 TDIS -- TEMPORAL DISCRETIZATION PACKAGE,
 VERSION 1 : 11/13/2014 - INPUT READ FROM UNIT ****
 # File generated by Flopy version 3.5.0.dev0 on 07/04/2024 at 16:27:56.
 PROCESSING TDIS OPTIONS
    SIMULATION TIME UNIT IS DAYS
 END OF TDIS OPTIONS
 PROCESSING TDIS DIMENSIONS
    1 STRESS PERIOD(S) IN SIMULATION
 END OF TDIS DIMENSIONS
 PROCESSING TDIS PERIODDATA


 STRESS PERIOD     LENGTH       TIME STEPS     MULTIPLIER FOR DELT
 ----------------------------------------------------------------------------
        1         2000.000        100                    1.000
 END OF TDIS PERIODDATA
 END OF SIMULATION TIMING

 READING SIMULATION MODELS
    GWF6 model 1 will be created
    GWT6 model 2 will be created
    GWT6 model 3 will be created
    GWT6 model 4 will be created
    GWT6 model 5 will be created
    GWT6 model 6 will be created
    GWT6 model 7 will be created
    GWT6 model 8 will be created
    GWT6 model 9 will be created
    GWT6 model 10 will be created
    GWT6 model 11 will be created
    GWT6 model 12 will be created
    GWT6 model 13 will be created
    GWT6 model 14 will be created
    GWT6 model 15 will be created
 END OF SIMULATION MODELS

 READING SIMULATION EXCHANGES
    GWF6-GWT6 exchange 1 will be created to connect model 1 with model 2
    GWF6-GWT6 exchange 2 will be created to connect model 1 with model 3
    GWF6-GWT6 exchange 3 will be created to connect model 1 with model 4
    GWF6-GWT6 exchange 4 will be created to connect model 1 with model 5
    GWF6-GWT6 exchange 5 will be created to connect model 1 with model 6
    GWF6-GWT6 exchange 6 will be created to connect model 1 with model 7
    GWF6-GWT6 exchange 7 will be created to connect model 1 with model 8
    GWF6-GWT6 exchange 8 will be created to connect model 1 with model 9
    GWF6-GWT6 exchange 9 will be created to connect model 1 with model 10
    GWF6-GWT6 exchange 10 will be created to connect model 1 with model 11
    GWF6-GWT6 exchange 11 will be created to connect model 1 with model 12
    GWF6-GWT6 exchange 12 will be created to connect model 1 with model 13
    GWF6-GWT6 exchange 13 will be created to connect model 1 with model 14
    GWF6-GWT6 exchange 14 will be created to connect model 1 with model 15
 END OF SIMULATION EXCHANGES

 READING SOLUTIONGROUP

 Creating solution: SLN_1           

 OPENED gwf.ims
 FILE TYPE:IMS   UNIT ****   STATUS:OLD                 
 FORMAT:FORMATTED              ACCESS:SEQUENTIAL          
 ACTION:READ                


 Creating solution: SLN_2           

 OPENED H.ims
 FILE TYPE:IMS   UNIT ****   STATUS:OLD                 
 FORMAT:FORMATTED              ACCESS:SEQUENTIAL          
 ACTION:READ                


 Creating solution: SLN_3           

 OPENED O.ims
 FILE TYPE:IMS   UNIT ****   STATUS:OLD                 
 FORMAT:FORMATTED              ACCESS:SEQUENTIAL          
 ACTION:READ                


 Creating solution: SLN_4           

 OPENED Charge.ims
 FILE TYPE:IMS   UNIT ****   STATUS:OLD                 
 FORMAT:FORMATTED              ACCESS:SEQUENTIAL          
 ACTION:READ                


 Creating solution: SLN_5           

 OPENED Al.ims
 FILE TYPE:IMS   UNIT ****   STATUS:OLD                 
 FORMAT:FORMATTED              ACCESS:SEQUENTIAL          
 ACTION:READ                


 Creating solution: SLN_6           

 OPENED C.ims
 FILE TYPE:IMS   UNIT ****   STATUS:OLD                 
 FORMAT:FORMATTED              ACCESS:SEQUENTIAL          
 ACTION:READ                


 Creating solution: SLN_7           

 OPENED Ca.ims
 FILE TYPE:IMS   UNIT ****   STATUS:OLD                 
 FORMAT:FORMATTED              ACCESS:SEQUENTIAL          
 ACTION:READ                


 Creating solution: SLN_8           

 OPENED Cl.ims
 FILE TYPE:IMS   UNIT ****   STATUS:OLD                 
 FORMAT:FORMATTED              ACCESS:SEQUENTIAL          
 ACTION:READ                


 Creating solution: SLN_9           

 OPENED Fe.ims
 FILE TYPE:IMS   UNIT ****   STATUS:OLD                 
 FORMAT:FORMATTED              ACCESS:SEQUENTIAL          
 ACTION:READ                


 Creating solution: SLN_10          

 OPENED K.ims
 FILE TYPE:IMS   UNIT ****   STATUS:OLD                 
 FORMAT:FORMATTED              ACCESS:SEQUENTIAL          
 ACTION:READ                


 Creating solution: SLN_11          

 OPENED Mg.ims
 FILE TYPE:IMS   UNIT ****   STATUS:OLD                 
 FORMAT:FORMATTED              ACCESS:SEQUENTIAL          
 ACTION:READ                


 Creating solution: SLN_12          

 OPENED Mn.ims
 FILE TYPE:IMS   UNIT ****   STATUS:OLD                 
 FORMAT:FORMATTED              ACCESS:SEQUENTIAL          
 ACTION:READ                


 Creating solution: SLN_13          

 OPENED Na.ims
 FILE TYPE:IMS   UNIT ****   STATUS:OLD                 
 FORMAT:FORMATTED              ACCESS:SEQUENTIAL          
 ACTION:READ                


 Creating solution: SLN_14          

 OPENED S.ims
 FILE TYPE:IMS   UNIT ****   STATUS:OLD                 
 FORMAT:FORMATTED              ACCESS:SEQUENTIAL          
 ACTION:READ                


 Creating solution: SLN_15          

 OPENED Si.ims
 FILE TYPE:IMS   UNIT ****   STATUS:OLD                 
 FORMAT:FORMATTED              ACCESS:SEQUENTIAL          
 ACTION:READ                

 END OF SOLUTIONGROUP

PROCESSING MODEL CONNECTIONS
END OF MODEL CONNECTIONS

 OPENED gwf.chd_stress_period_data_1.txt
 FILE TYPE:OPEN/CLOSE   UNIT ****   STATUS:OLD                 
 FORMAT:FORMATTED              ACCESS:SEQUENTIAL          
 ACTION:READ                


 OPENED gwf.chdtail_stress_period_data_1.txt
 FILE TYPE:OPEN/CLOSE   UNIT ****   STATUS:OLD                 
 FORMAT:FORMATTED              ACCESS:SEQUENTIAL          
 ACTION:READ                


 IMS -- ITERATIVE MODEL SOLUTION PACKAGE, VERSION 6, 4/28/2017
         INPUT READ FROM UNIT13420
 # File generated by Flopy version 3.5.0.dev0 on 07/04/2024 at 16:27:56.

 PROCESSING IMS OPTIONS
 COMPLEX OPTION:
 DEFAULT SOLVER INPUT VALUES REFLECT STRONGLY NONLINEAR MODEL
 END OF IMS OPTIONS

 PROCESSING IMS NONLINEAR
 END OF IMS NONLINEAR DATA
 ***UNDER-RELAXATION WILL NOT BE USED***
 

 PROCESSING LINEAR DATA
 END OF LINEAR DATA
 ***IMS LINEAR SOLVER WILL BE USED***

 IMSLINEAR -- UNSTRUCTURED LINEAR SOLUTION PACKAGE, VERSION 8, 04/28/2017
 A symmetric matrix will be solved

 OUTER ITERATION CONVERGENCE CRITERION    (DVCLOSE) =    0.100000E-05
 MAXIMUM NUMBER OF OUTER ITERATIONS        (MXITER) = 300
 SOLVER PRINTOUT INDEX                     (IPRIMS) = 1
 NONLINEAR ITERATION METHOD            (NONLINMETH) = 0
 LINEAR SOLUTION METHOD                   (LINMETH) = 1
 MAXIMUM NUMBER OF BACKTRACKS            (NUMTRACK) = 20
 BACKTRACKING TOLERANCE FACTOR               (BTOL) =    0.105000E+01
 BACKTRACKING REDUCTION FACTOR             (BREDUC) =    0.100000E+00
 BACKTRACKING RESIDUAL LIMIT              (RES_LIM) =    0.200000E-02

       SOLUTION BY THE        CONJUGATE-GRADIENT       METHOD
 ------------------------------------------------------------------
 MAXIMUM OF 300 CALLS OF SOLUTION ROUTINE
 MAXIMUM OF 600 INTERNAL ITERATIONS PER CALL TO SOLUTION ROUTINE
 LINEAR ACCELERATION METHOD            = CG        
 MATRIX PRECONDITIONING TYPE           = MOD. INCOMPLETE LUT 
 MATRIX SCALING APPROACH               = NO SCALING          
 MATRIX REORDERING APPROACH            = ORIGINAL ORDERING        
 NUMBER OF ORTHOGONALIZATIONS          = 2
 HEAD CHANGE CRITERION FOR CLOSURE     =    0.10000E-05
 RESIDUAL CHANGE CRITERION FOR CLOSURE =    0.10000E-05
 RESIDUAL CONVERGENCE OPTION           = 0
 RESIDUAL CONVERGENCE NORM             = INFINITY NORM   
 RELAXATION FACTOR                     =    0.10000E+01
 NUMBER OF LEVELS                      =              5
 DROP TOLERANCE                        =    0.10000E-03



 IMS -- ITERATIVE MODEL SOLUTION PACKAGE, VERSION 6, 4/28/2017
         INPUT READ FROM UNIT13421
 # File generated by Flopy version 3.5.0.dev0 on 07/04/2024 at 16:27:56.

 PROCESSING IMS OPTIONS
 END OF IMS OPTIONS

 PROCESSING IMS NONLINEAR
 END OF IMS NONLINEAR DATA
 ***UNDER-RELAXATION WILL NOT BE USED***
 

 PROCESSING LINEAR DATA
 END OF LINEAR DATA
 ***IMS LINEAR SOLVER WILL BE USED***

 IMSLINEAR -- UNSTRUCTURED LINEAR SOLUTION PACKAGE, VERSION 8, 04/28/2017
 An asymmetric matrix will be solved

 OUTER ITERATION CONVERGENCE CRITERION    (DVCLOSE) =    0.100000E-05
 MAXIMUM NUMBER OF OUTER ITERATIONS        (MXITER) = 300
 SOLVER PRINTOUT INDEX                     (IPRIMS) = 1
 NONLINEAR ITERATION METHOD            (NONLINMETH) = 0
 LINEAR SOLUTION METHOD                   (LINMETH) = 1

       SOLUTION BY THE BICONJUGATE-GRADIENT STABILIZED METHOD
 ------------------------------------------------------------------
 MAXIMUM OF 300 CALLS OF SOLUTION ROUTINE
 MAXIMUM OF 600 INTERNAL ITERATIONS PER CALL TO SOLUTION ROUTINE
 LINEAR ACCELERATION METHOD            = BCGS      
 MATRIX PRECONDITIONING TYPE           = MOD. INCOMPLETE LU  
 MATRIX SCALING APPROACH               = NO SCALING          
 MATRIX REORDERING APPROACH            = ORIGINAL ORDERING        
 NUMBER OF ORTHOGONALIZATIONS          = 0
 HEAD CHANGE CRITERION FOR CLOSURE     =    0.10000E-05
 RESIDUAL CHANGE CRITERION FOR CLOSURE =    0.10000E-05
 RESIDUAL CONVERGENCE OPTION           = 0
 RESIDUAL CONVERGENCE NORM             = INFINITY NORM   
 RELAXATION FACTOR                     =    0.10000E+01




 IMS -- ITERATIVE MODEL SOLUTION PACKAGE, VERSION 6, 4/28/2017
         INPUT READ FROM UNIT13422
 # File generated by Flopy version 3.5.0.dev0 on 07/04/2024 at 16:27:56.

 PROCESSING IMS OPTIONS
 END OF IMS OPTIONS

 PROCESSING IMS NONLINEAR
 END OF IMS NONLINEAR DATA
 ***UNDER-RELAXATION WILL NOT BE USED***
 

 PROCESSING LINEAR DATA
 END OF LINEAR DATA
 ***IMS LINEAR SOLVER WILL BE USED***

 IMSLINEAR -- UNSTRUCTURED LINEAR SOLUTION PACKAGE, VERSION 8, 04/28/2017
 An asymmetric matrix will be solved

 OUTER ITERATION CONVERGENCE CRITERION    (DVCLOSE) =    0.100000E-05
 MAXIMUM NUMBER OF OUTER ITERATIONS        (MXITER) = 300
 SOLVER PRINTOUT INDEX                     (IPRIMS) = 1
 NONLINEAR ITERATION METHOD            (NONLINMETH) = 0
 LINEAR SOLUTION METHOD                   (LINMETH) = 1

       SOLUTION BY THE BICONJUGATE-GRADIENT STABILIZED METHOD
 ------------------------------------------------------------------
 MAXIMUM OF 300 CALLS OF SOLUTION ROUTINE
 MAXIMUM OF 600 INTERNAL ITERATIONS PER CALL TO SOLUTION ROUTINE
 LINEAR ACCELERATION METHOD            = BCGS      
 MATRIX PRECONDITIONING TYPE           = MOD. INCOMPLETE LU  
 MATRIX SCALING APPROACH               = NO SCALING          
 MATRIX REORDERING APPROACH            = ORIGINAL ORDERING        
 NUMBER OF ORTHOGONALIZATIONS          = 0
 HEAD CHANGE CRITERION FOR CLOSURE     =    0.10000E-05
 RESIDUAL CHANGE CRITERION FOR CLOSURE =    0.10000E-05
 RESIDUAL CONVERGENCE OPTION           = 0
 RESIDUAL CONVERGENCE NORM             = INFINITY NORM   
 RELAXATION FACTOR                     =    0.10000E+01




 IMS -- ITERATIVE MODEL SOLUTION PACKAGE, VERSION 6, 4/28/2017
         INPUT READ FROM UNIT13423
 # File generated by Flopy version 3.5.0.dev0 on 07/04/2024 at 16:27:56.

 PROCESSING IMS OPTIONS
 END OF IMS OPTIONS

 PROCESSING IMS NONLINEAR
 END OF IMS NONLINEAR DATA
 ***UNDER-RELAXATION WILL NOT BE USED***
 

 PROCESSING LINEAR DATA
 END OF LINEAR DATA
 ***IMS LINEAR SOLVER WILL BE USED***

 IMSLINEAR -- UNSTRUCTURED LINEAR SOLUTION PACKAGE, VERSION 8, 04/28/2017
 An asymmetric matrix will be solved

 OUTER ITERATION CONVERGENCE CRITERION    (DVCLOSE) =    0.100000E-05
 MAXIMUM NUMBER OF OUTER ITERATIONS        (MXITER) = 300
 SOLVER PRINTOUT INDEX                     (IPRIMS) = 1
 NONLINEAR ITERATION METHOD            (NONLINMETH) = 0
 LINEAR SOLUTION METHOD                   (LINMETH) = 1

       SOLUTION BY THE BICONJUGATE-GRADIENT STABILIZED METHOD
 ------------------------------------------------------------------
 MAXIMUM OF 300 CALLS OF SOLUTION ROUTINE
 MAXIMUM OF 600 INTERNAL ITERATIONS PER CALL TO SOLUTION ROUTINE
 LINEAR ACCELERATION METHOD            = BCGS      
 MATRIX PRECONDITIONING TYPE           = MOD. INCOMPLETE LU  
 MATRIX SCALING APPROACH               = NO SCALING          
 MATRIX REORDERING APPROACH            = ORIGINAL ORDERING        
 NUMBER OF ORTHOGONALIZATIONS          = 0
 HEAD CHANGE CRITERION FOR CLOSURE     =    0.10000E-05
 RESIDUAL CHANGE CRITERION FOR CLOSURE =    0.10000E-05
 RESIDUAL CONVERGENCE OPTION           = 0
 RESIDUAL CONVERGENCE NORM             = INFINITY NORM   
 RELAXATION FACTOR                     =    0.10000E+01




 IMS -- ITERATIVE MODEL SOLUTION PACKAGE, VERSION 6, 4/28/2017
         INPUT READ FROM UNIT13424
 # File generated by Flopy version 3.5.0.dev0 on 07/04/2024 at 16:27:56.

 PROCESSING IMS OPTIONS
 END OF IMS OPTIONS

 PROCESSING IMS NONLINEAR
 END OF IMS NONLINEAR DATA
 ***UNDER-RELAXATION WILL NOT BE USED***
 

 PROCESSING LINEAR DATA
 END OF LINEAR DATA
 ***IMS LINEAR SOLVER WILL BE USED***

 IMSLINEAR -- UNSTRUCTURED LINEAR SOLUTION PACKAGE, VERSION 8, 04/28/2017
 An asymmetric matrix will be solved

 OUTER ITERATION CONVERGENCE CRITERION    (DVCLOSE) =    0.100000E-05
 MAXIMUM NUMBER OF OUTER ITERATIONS        (MXITER) = 300
 SOLVER PRINTOUT INDEX                     (IPRIMS) = 1
 NONLINEAR ITERATION METHOD            (NONLINMETH) = 0
 LINEAR SOLUTION METHOD                   (LINMETH) = 1

       SOLUTION BY THE BICONJUGATE-GRADIENT STABILIZED METHOD
 ------------------------------------------------------------------
 MAXIMUM OF 300 CALLS OF SOLUTION ROUTINE
 MAXIMUM OF 600 INTERNAL ITERATIONS PER CALL TO SOLUTION ROUTINE
 LINEAR ACCELERATION METHOD            = BCGS      
 MATRIX PRECONDITIONING TYPE           = MOD. INCOMPLETE LU  
 MATRIX SCALING APPROACH               = NO SCALING          
 MATRIX REORDERING APPROACH            = ORIGINAL ORDERING        
 NUMBER OF ORTHOGONALIZATIONS          = 0
 HEAD CHANGE CRITERION FOR CLOSURE     =    0.10000E-05
 RESIDUAL CHANGE CRITERION FOR CLOSURE =    0.10000E-05
 RESIDUAL CONVERGENCE OPTION           = 0
 RESIDUAL CONVERGENCE NORM             = INFINITY NORM   
 RELAXATION FACTOR                     =    0.10000E+01




 IMS -- ITERATIVE MODEL SOLUTION PACKAGE, VERSION 6, 4/28/2017
         INPUT READ FROM UNIT13425
 # File generated by Flopy version 3.5.0.dev0 on 07/04/2024 at 16:27:56.

 PROCESSING IMS OPTIONS
 END OF IMS OPTIONS

 PROCESSING IMS NONLINEAR
 END OF IMS NONLINEAR DATA
 ***UNDER-RELAXATION WILL NOT BE USED***
 

 PROCESSING LINEAR DATA
 END OF LINEAR DATA
 ***IMS LINEAR SOLVER WILL BE USED***

 IMSLINEAR -- UNSTRUCTURED LINEAR SOLUTION PACKAGE, VERSION 8, 04/28/2017
 An asymmetric matrix will be solved

 OUTER ITERATION CONVERGENCE CRITERION    (DVCLOSE) =    0.100000E-05
 MAXIMUM NUMBER OF OUTER ITERATIONS        (MXITER) = 300
 SOLVER PRINTOUT INDEX                     (IPRIMS) = 1
 NONLINEAR ITERATION METHOD            (NONLINMETH) = 0
 LINEAR SOLUTION METHOD                   (LINMETH) = 1

       SOLUTION BY THE BICONJUGATE-GRADIENT STABILIZED METHOD
 ------------------------------------------------------------------
 MAXIMUM OF 300 CALLS OF SOLUTION ROUTINE
 MAXIMUM OF 600 INTERNAL ITERATIONS PER CALL TO SOLUTION ROUTINE
 LINEAR ACCELERATION METHOD            = BCGS      
 MATRIX PRECONDITIONING TYPE           = MOD. INCOMPLETE LU  
 MATRIX SCALING APPROACH               = NO SCALING          
 MATRIX REORDERING APPROACH            = ORIGINAL ORDERING        
 NUMBER OF ORTHOGONALIZATIONS          = 0
 HEAD CHANGE CRITERION FOR CLOSURE     =    0.10000E-05
 RESIDUAL CHANGE CRITERION FOR CLOSURE =    0.10000E-05
 RESIDUAL CONVERGENCE OPTION           = 0
 RESIDUAL CONVERGENCE NORM             = INFINITY NORM   
 RELAXATION FACTOR                     =    0.10000E+01




 IMS -- ITERATIVE MODEL SOLUTION PACKAGE, VERSION 6, 4/28/2017
         INPUT READ FROM UNIT13426
 # File generated by Flopy version 3.5.0.dev0 on 07/04/2024 at 16:27:56.

 PROCESSING IMS OPTIONS
 END OF IMS OPTIONS

 PROCESSING IMS NONLINEAR
 END OF IMS NONLINEAR DATA
 ***UNDER-RELAXATION WILL NOT BE USED***
 

 PROCESSING LINEAR DATA
 END OF LINEAR DATA
 ***IMS LINEAR SOLVER WILL BE USED***

 IMSLINEAR -- UNSTRUCTURED LINEAR SOLUTION PACKAGE, VERSION 8, 04/28/2017
 An asymmetric matrix will be solved

 OUTER ITERATION CONVERGENCE CRITERION    (DVCLOSE) =    0.100000E-05
 MAXIMUM NUMBER OF OUTER ITERATIONS        (MXITER) = 300
 SOLVER PRINTOUT INDEX                     (IPRIMS) = 1
 NONLINEAR ITERATION METHOD            (NONLINMETH) = 0
 LINEAR SOLUTION METHOD                   (LINMETH) = 1

       SOLUTION BY THE BICONJUGATE-GRADIENT STABILIZED METHOD
 ------------------------------------------------------------------
 MAXIMUM OF 300 CALLS OF SOLUTION ROUTINE
 MAXIMUM OF 600 INTERNAL ITERATIONS PER CALL TO SOLUTION ROUTINE
 LINEAR ACCELERATION METHOD            = BCGS      
 MATRIX PRECONDITIONING TYPE           = MOD. INCOMPLETE LU  
 MATRIX SCALING APPROACH               = NO SCALING          
 MATRIX REORDERING APPROACH            = ORIGINAL ORDERING        
 NUMBER OF ORTHOGONALIZATIONS          = 0
 HEAD CHANGE CRITERION FOR CLOSURE     =    0.10000E-05
 RESIDUAL CHANGE CRITERION FOR CLOSURE =    0.10000E-05
 RESIDUAL CONVERGENCE OPTION           = 0
 RESIDUAL CONVERGENCE NORM             = INFINITY NORM   
 RELAXATION FACTOR                     =    0.10000E+01




 IMS -- ITERATIVE MODEL SOLUTION PACKAGE, VERSION 6, 4/28/2017
         INPUT READ FROM UNIT13427
 # File generated by Flopy version 3.5.0.dev0 on 07/04/2024 at 16:27:56.

 PROCESSING IMS OPTIONS
 END OF IMS OPTIONS

 PROCESSING IMS NONLINEAR
 END OF IMS NONLINEAR DATA
 ***UNDER-RELAXATION WILL NOT BE USED***
 

 PROCESSING LINEAR DATA
 END OF LINEAR DATA
 ***IMS LINEAR SOLVER WILL BE USED***

 IMSLINEAR -- UNSTRUCTURED LINEAR SOLUTION PACKAGE, VERSION 8, 04/28/2017
 An asymmetric matrix will be solved

 OUTER ITERATION CONVERGENCE CRITERION    (DVCLOSE) =    0.100000E-05
 MAXIMUM NUMBER OF OUTER ITERATIONS        (MXITER) = 300
 SOLVER PRINTOUT INDEX                     (IPRIMS) = 1
 NONLINEAR ITERATION METHOD            (NONLINMETH) = 0
 LINEAR SOLUTION METHOD                   (LINMETH) = 1

       SOLUTION BY THE BICONJUGATE-GRADIENT STABILIZED METHOD
 ------------------------------------------------------------------
 MAXIMUM OF 300 CALLS OF SOLUTION ROUTINE
 MAXIMUM OF 600 INTERNAL ITERATIONS PER CALL TO SOLUTION ROUTINE
 LINEAR ACCELERATION METHOD            = BCGS      
 MATRIX PRECONDITIONING TYPE           = MOD. INCOMPLETE LU  
 MATRIX SCALING APPROACH               = NO SCALING          
 MATRIX REORDERING APPROACH            = ORIGINAL ORDERING        
 NUMBER OF ORTHOGONALIZATIONS          = 0
 HEAD CHANGE CRITERION FOR CLOSURE     =    0.10000E-05
 RESIDUAL CHANGE CRITERION FOR CLOSURE =    0.10000E-05
 RESIDUAL CONVERGENCE OPTION           = 0
 RESIDUAL CONVERGENCE NORM             = INFINITY NORM   
 RELAXATION FACTOR                     =    0.10000E+01




 IMS -- ITERATIVE MODEL SOLUTION PACKAGE, VERSION 6, 4/28/2017
         INPUT READ FROM UNIT13428
 # File generated by Flopy version 3.5.0.dev0 on 07/04/2024 at 16:27:56.

 PROCESSING IMS OPTIONS
 END OF IMS OPTIONS

 PROCESSING IMS NONLINEAR
 END OF IMS NONLINEAR DATA
 ***UNDER-RELAXATION WILL NOT BE USED***
 

 PROCESSING LINEAR DATA
 END OF LINEAR DATA
 ***IMS LINEAR SOLVER WILL BE USED***

 IMSLINEAR -- UNSTRUCTURED LINEAR SOLUTION PACKAGE, VERSION 8, 04/28/2017
 An asymmetric matrix will be solved

 OUTER ITERATION CONVERGENCE CRITERION    (DVCLOSE) =    0.100000E-05
 MAXIMUM NUMBER OF OUTER ITERATIONS        (MXITER) = 300
 SOLVER PRINTOUT INDEX                     (IPRIMS) = 1
 NONLINEAR ITERATION METHOD            (NONLINMETH) = 0
 LINEAR SOLUTION METHOD                   (LINMETH) = 1

       SOLUTION BY THE BICONJUGATE-GRADIENT STABILIZED METHOD
 ------------------------------------------------------------------
 MAXIMUM OF 300 CALLS OF SOLUTION ROUTINE
 MAXIMUM OF 600 INTERNAL ITERATIONS PER CALL TO SOLUTION ROUTINE
 LINEAR ACCELERATION METHOD            = BCGS      
 MATRIX PRECONDITIONING TYPE           = MOD. INCOMPLETE LU  
 MATRIX SCALING APPROACH               = NO SCALING          
 MATRIX REORDERING APPROACH            = ORIGINAL ORDERING        
 NUMBER OF ORTHOGONALIZATIONS          = 0
 HEAD CHANGE CRITERION FOR CLOSURE     =    0.10000E-05
 RESIDUAL CHANGE CRITERION FOR CLOSURE =    0.10000E-05
 RESIDUAL CONVERGENCE OPTION           = 0
 RESIDUAL CONVERGENCE NORM             = INFINITY NORM   
 RELAXATION FACTOR                     =    0.10000E+01




 IMS -- ITERATIVE MODEL SOLUTION PACKAGE, VERSION 6, 4/28/2017
         INPUT READ FROM UNIT13429
 # File generated by Flopy version 3.5.0.dev0 on 07/04/2024 at 16:27:56.

 PROCESSING IMS OPTIONS
 END OF IMS OPTIONS

 PROCESSING IMS NONLINEAR
 END OF IMS NONLINEAR DATA
 ***UNDER-RELAXATION WILL NOT BE USED***
 

 PROCESSING LINEAR DATA
 END OF LINEAR DATA
 ***IMS LINEAR SOLVER WILL BE USED***

 IMSLINEAR -- UNSTRUCTURED LINEAR SOLUTION PACKAGE, VERSION 8, 04/28/2017
 An asymmetric matrix will be solved

 OUTER ITERATION CONVERGENCE CRITERION    (DVCLOSE) =    0.100000E-05
 MAXIMUM NUMBER OF OUTER ITERATIONS        (MXITER) = 300
 SOLVER PRINTOUT INDEX                     (IPRIMS) = 1
 NONLINEAR ITERATION METHOD            (NONLINMETH) = 0
 LINEAR SOLUTION METHOD                   (LINMETH) = 1

       SOLUTION BY THE BICONJUGATE-GRADIENT STABILIZED METHOD
 ------------------------------------------------------------------
 MAXIMUM OF 300 CALLS OF SOLUTION ROUTINE
 MAXIMUM OF 600 INTERNAL ITERATIONS PER CALL TO SOLUTION ROUTINE
 LINEAR ACCELERATION METHOD            = BCGS      
 MATRIX PRECONDITIONING TYPE           = MOD. INCOMPLETE LU  
 MATRIX SCALING APPROACH               = NO SCALING          
 MATRIX REORDERING APPROACH            = ORIGINAL ORDERING        
 NUMBER OF ORTHOGONALIZATIONS          = 0
 HEAD CHANGE CRITERION FOR CLOSURE     =    0.10000E-05
 RESIDUAL CHANGE CRITERION FOR CLOSURE =    0.10000E-05
 RESIDUAL CONVERGENCE OPTION           = 0
 RESIDUAL CONVERGENCE NORM             = INFINITY NORM   
 RELAXATION FACTOR                     =    0.10000E+01




 IMS -- ITERATIVE MODEL SOLUTION PACKAGE, VERSION 6, 4/28/2017
         INPUT READ FROM UNIT13430
 # File generated by Flopy version 3.5.0.dev0 on 07/04/2024 at 16:27:56.

 PROCESSING IMS OPTIONS
 END OF IMS OPTIONS

 PROCESSING IMS NONLINEAR
 END OF IMS NONLINEAR DATA
 ***UNDER-RELAXATION WILL NOT BE USED***
 

 PROCESSING LINEAR DATA
 END OF LINEAR DATA
 ***IMS LINEAR SOLVER WILL BE USED***

 IMSLINEAR -- UNSTRUCTURED LINEAR SOLUTION PACKAGE, VERSION 8, 04/28/2017
 An asymmetric matrix will be solved

 OUTER ITERATION CONVERGENCE CRITERION    (DVCLOSE) =    0.100000E-05
 MAXIMUM NUMBER OF OUTER ITERATIONS        (MXITER) = 300
 SOLVER PRINTOUT INDEX                     (IPRIMS) = 1
 NONLINEAR ITERATION METHOD            (NONLINMETH) = 0
 LINEAR SOLUTION METHOD                   (LINMETH) = 1

       SOLUTION BY THE BICONJUGATE-GRADIENT STABILIZED METHOD
 ------------------------------------------------------------------
 MAXIMUM OF 300 CALLS OF SOLUTION ROUTINE
 MAXIMUM OF 600 INTERNAL ITERATIONS PER CALL TO SOLUTION ROUTINE
 LINEAR ACCELERATION METHOD            = BCGS      
 MATRIX PRECONDITIONING TYPE           = MOD. INCOMPLETE LU  
 MATRIX SCALING APPROACH               = NO SCALING          
 MATRIX REORDERING APPROACH            = ORIGINAL ORDERING        
 NUMBER OF ORTHOGONALIZATIONS          = 0
 HEAD CHANGE CRITERION FOR CLOSURE     =    0.10000E-05
 RESIDUAL CHANGE CRITERION FOR CLOSURE =    0.10000E-05
 RESIDUAL CONVERGENCE OPTION           = 0
 RESIDUAL CONVERGENCE NORM             = INFINITY NORM   
 RELAXATION FACTOR                     =    0.10000E+01




 IMS -- ITERATIVE MODEL SOLUTION PACKAGE, VERSION 6, 4/28/2017
         INPUT READ FROM UNIT13431
 # File generated by Flopy version 3.5.0.dev0 on 07/04/2024 at 16:27:56.

 PROCESSING IMS OPTIONS
 END OF IMS OPTIONS

 PROCESSING IMS NONLINEAR
 END OF IMS NONLINEAR DATA
 ***UNDER-RELAXATION WILL NOT BE USED***
 

 PROCESSING LINEAR DATA
 END OF LINEAR DATA
 ***IMS LINEAR SOLVER WILL BE USED***

 IMSLINEAR -- UNSTRUCTURED LINEAR SOLUTION PACKAGE, VERSION 8, 04/28/2017
 An asymmetric matrix will be solved

 OUTER ITERATION CONVERGENCE CRITERION    (DVCLOSE) =    0.100000E-05
 MAXIMUM NUMBER OF OUTER ITERATIONS        (MXITER) = 300
 SOLVER PRINTOUT INDEX                     (IPRIMS) = 1
 NONLINEAR ITERATION METHOD            (NONLINMETH) = 0
 LINEAR SOLUTION METHOD                   (LINMETH) = 1

       SOLUTION BY THE BICONJUGATE-GRADIENT STABILIZED METHOD
 ------------------------------------------------------------------
 MAXIMUM OF 300 CALLS OF SOLUTION ROUTINE
 MAXIMUM OF 600 INTERNAL ITERATIONS PER CALL TO SOLUTION ROUTINE
 LINEAR ACCELERATION METHOD            = BCGS      
 MATRIX PRECONDITIONING TYPE           = MOD. INCOMPLETE LU  
 MATRIX SCALING APPROACH               = NO SCALING          
 MATRIX REORDERING APPROACH            = ORIGINAL ORDERING        
 NUMBER OF ORTHOGONALIZATIONS          = 0
 HEAD CHANGE CRITERION FOR CLOSURE     =    0.10000E-05
 RESIDUAL CHANGE CRITERION FOR CLOSURE =    0.10000E-05
 RESIDUAL CONVERGENCE OPTION           = 0
 RESIDUAL CONVERGENCE NORM             = INFINITY NORM   
 RELAXATION FACTOR                     =    0.10000E+01




 IMS -- ITERATIVE MODEL SOLUTION PACKAGE, VERSION 6, 4/28/2017
         INPUT READ FROM UNIT13432
 # File generated by Flopy version 3.5.0.dev0 on 07/04/2024 at 16:27:56.

 PROCESSING IMS OPTIONS
 END OF IMS OPTIONS

 PROCESSING IMS NONLINEAR
 END OF IMS NONLINEAR DATA
 ***UNDER-RELAXATION WILL NOT BE USED***
 

 PROCESSING LINEAR DATA
 END OF LINEAR DATA
 ***IMS LINEAR SOLVER WILL BE USED***

 IMSLINEAR -- UNSTRUCTURED LINEAR SOLUTION PACKAGE, VERSION 8, 04/28/2017
 An asymmetric matrix will be solved

 OUTER ITERATION CONVERGENCE CRITERION    (DVCLOSE) =    0.100000E-05
 MAXIMUM NUMBER OF OUTER ITERATIONS        (MXITER) = 300
 SOLVER PRINTOUT INDEX                     (IPRIMS) = 1
 NONLINEAR ITERATION METHOD            (NONLINMETH) = 0
 LINEAR SOLUTION METHOD                   (LINMETH) = 1

       SOLUTION BY THE BICONJUGATE-GRADIENT STABILIZED METHOD
 ------------------------------------------------------------------
 MAXIMUM OF 300 CALLS OF SOLUTION ROUTINE
 MAXIMUM OF 600 INTERNAL ITERATIONS PER CALL TO SOLUTION ROUTINE
 LINEAR ACCELERATION METHOD            = BCGS      
 MATRIX PRECONDITIONING TYPE           = MOD. INCOMPLETE LU  
 MATRIX SCALING APPROACH               = NO SCALING          
 MATRIX REORDERING APPROACH            = ORIGINAL ORDERING        
 NUMBER OF ORTHOGONALIZATIONS          = 0
 HEAD CHANGE CRITERION FOR CLOSURE     =    0.10000E-05
 RESIDUAL CHANGE CRITERION FOR CLOSURE =    0.10000E-05
 RESIDUAL CONVERGENCE OPTION           = 0
 RESIDUAL CONVERGENCE NORM             = INFINITY NORM   
 RELAXATION FACTOR                     =    0.10000E+01




 IMS -- ITERATIVE MODEL SOLUTION PACKAGE, VERSION 6, 4/28/2017
         INPUT READ FROM UNIT13433
 # File generated by Flopy version 3.5.0.dev0 on 07/04/2024 at 16:27:56.

 PROCESSING IMS OPTIONS
 END OF IMS OPTIONS

 PROCESSING IMS NONLINEAR
 END OF IMS NONLINEAR DATA
 ***UNDER-RELAXATION WILL NOT BE USED***
 

 PROCESSING LINEAR DATA
 END OF LINEAR DATA
 ***IMS LINEAR SOLVER WILL BE USED***

 IMSLINEAR -- UNSTRUCTURED LINEAR SOLUTION PACKAGE, VERSION 8, 04/28/2017
 An asymmetric matrix will be solved

 OUTER ITERATION CONVERGENCE CRITERION    (DVCLOSE) =    0.100000E-05
 MAXIMUM NUMBER OF OUTER ITERATIONS        (MXITER) = 300
 SOLVER PRINTOUT INDEX                     (IPRIMS) = 1
 NONLINEAR ITERATION METHOD            (NONLINMETH) = 0
 LINEAR SOLUTION METHOD                   (LINMETH) = 1

       SOLUTION BY THE BICONJUGATE-GRADIENT STABILIZED METHOD
 ------------------------------------------------------------------
 MAXIMUM OF 300 CALLS OF SOLUTION ROUTINE
 MAXIMUM OF 600 INTERNAL ITERATIONS PER CALL TO SOLUTION ROUTINE
 LINEAR ACCELERATION METHOD            = BCGS      
 MATRIX PRECONDITIONING TYPE           = MOD. INCOMPLETE LU  
 MATRIX SCALING APPROACH               = NO SCALING          
 MATRIX REORDERING APPROACH            = ORIGINAL ORDERING        
 NUMBER OF ORTHOGONALIZATIONS          = 0
 HEAD CHANGE CRITERION FOR CLOSURE     =    0.10000E-05
 RESIDUAL CHANGE CRITERION FOR CLOSURE =    0.10000E-05
 RESIDUAL CONVERGENCE OPTION           = 0
 RESIDUAL CONVERGENCE NORM             = INFINITY NORM   
 RELAXATION FACTOR                     =    0.10000E+01




 IMS -- ITERATIVE MODEL SOLUTION PACKAGE, VERSION 6, 4/28/2017
         INPUT READ FROM UNIT13434
 # File generated by Flopy version 3.5.0.dev0 on 07/04/2024 at 16:27:56.

 PROCESSING IMS OPTIONS
 END OF IMS OPTIONS

 PROCESSING IMS NONLINEAR
 END OF IMS NONLINEAR DATA
 ***UNDER-RELAXATION WILL NOT BE USED***
 

 PROCESSING LINEAR DATA
 END OF LINEAR DATA
 ***IMS LINEAR SOLVER WILL BE USED***

 IMSLINEAR -- UNSTRUCTURED LINEAR SOLUTION PACKAGE, VERSION 8, 04/28/2017
 An asymmetric matrix will be solved

 OUTER ITERATION CONVERGENCE CRITERION    (DVCLOSE) =    0.100000E-05
 MAXIMUM NUMBER OF OUTER ITERATIONS        (MXITER) = 300
 SOLVER PRINTOUT INDEX                     (IPRIMS) = 1
 NONLINEAR ITERATION METHOD            (NONLINMETH) = 0
 LINEAR SOLUTION METHOD                   (LINMETH) = 1

       SOLUTION BY THE BICONJUGATE-GRADIENT STABILIZED METHOD
 ------------------------------------------------------------------
 MAXIMUM OF 300 CALLS OF SOLUTION ROUTINE
 MAXIMUM OF 600 INTERNAL ITERATIONS PER CALL TO SOLUTION ROUTINE
 LINEAR ACCELERATION METHOD            = BCGS      
 MATRIX PRECONDITIONING TYPE           = MOD. INCOMPLETE LU  
 MATRIX SCALING APPROACH               = NO SCALING          
 MATRIX REORDERING APPROACH            = ORIGINAL ORDERING        
 NUMBER OF ORTHOGONALIZATIONS          = 0
 HEAD CHANGE CRITERION FOR CLOSURE     =    0.10000E-05
 RESIDUAL CHANGE CRITERION FOR CLOSURE =    0.10000E-05
 RESIDUAL CONVERGENCE OPTION           = 0
 RESIDUAL CONVERGENCE NORM             = INFINITY NORM   
 RELAXATION FACTOR                     =    0.10000E+01



 
    Solving:  Stress period:     1    Time step:     1
 
1
                            STRESS PERIOD NO. 1, LENGTH =   2000.000    
                            -----------------------------------------------
                            NUMBER OF TIME STEPS = 100
                            MULTIPLIER FOR DELT =     1.000
                            INITIAL TIME STEP SIZE =   20.00000    

 SLN_1 OUTER ITERATION SUMMARY
 ----------------------------------------------------------------------------------------------------------------------------------------------------------------
                                OUTER      INNER  BACKTRACK  BACKTRACK        INCOMING        OUTGOING                    STEP   MAXIMUM CHANGE MODEL-(CELLID) OR
 OUTER ITERATION STEP       ITERATION  ITERATION       FLAG ITERATIONS        RESIDUAL        RESIDUAL  MAXIMUM CHANGE SUCCESS             MODEL-PACKAGE-(NUMBER)
 ----------------------------------------------------------------------------------------------------------------------------------------------------------------
 Backtracking                       1                     0          0       1.5811388       1.5811388                       *                                   
 Model                              1         38                                                             1.9166668                              1_GWF-(1,1,2)
 Backtracking                       2                     0          0  3.14151776E-06  3.14151776E-06                       *                                   
 Model                              2          5                                                       -6.18518193E-06                              1_GWF-(6,1,7)
 Backtracking                       3                     0          0  9.70681656E-08  9.70681656E-08                       *                                   
 Model                              3          1                                                        9.84448487E-08       *                      1_GWF-(6,1,7)
 ----------------------------------------------------------------------------------------------------------------------------------------------------------------


 3 CALLS TO NUMERICAL SOLUTION IN TIME STEP 1 STRESS PERIOD 1
 44 TOTAL ITERATIONS

 SLN_2 OUTER ITERATION SUMMARY
 ----------------------------------------------------------------------------------------------------------
                                OUTER      INNER                    STEP   MAXIMUM CHANGE MODEL-(CELLID) OR
 OUTER ITERATION STEP       ITERATION  ITERATION  MAXIMUM CHANGE SUCCESS             MODEL-PACKAGE-(NUMBER)
 ----------------------------------------------------------------------------------------------------------
 Model                              1          4     -0.49553423                              2_GWT-(1,1,1)
 Model                              2          3 -1.33685306E-02                              2_GWT-(1,1,2)
 Model                              3          3 -2.20514298E-03                              2_GWT-(1,1,2)
 Model                              4          2  5.35941799E-04                              2_GWT-(1,1,3)
 Model                              5          2  1.44343503E-04                              2_GWT-(1,1,3)
 Model                              6          2  4.05714964E-05                              2_GWT-(1,1,3)
 Model                              7          2  1.19818433E-05                              2_GWT-(1,1,3)
 Model                              8          2  3.70854104E-06                              2_GWT-(1,1,3)
 Model                              9          2  1.19137985E-06                              2_GWT-(1,1,3)
 Model                             10          1  3.93134542E-07       *                      2_GWT-(1,1,3)
 ----------------------------------------------------------------------------------------------------------


 10 CALLS TO NUMERICAL SOLUTION IN TIME STEP 1 STRESS PERIOD 1
 23 TOTAL ITERATIONS

 SLN_3 OUTER ITERATION SUMMARY
 ----------------------------------------------------------------------------------------------------------
                                OUTER      INNER                    STEP   MAXIMUM CHANGE MODEL-(CELLID) OR
 OUTER ITERATION STEP       ITERATION  ITERATION  MAXIMUM CHANGE SUCCESS             MODEL-PACKAGE-(NUMBER)
 ----------------------------------------------------------------------------------------------------------
 Model                              1          5       32.927085                              3_GWT-(1,1,1)
 Model                              2          4      0.88685083                              3_GWT-(1,1,2)
 Model                              3          4      0.14718516                              3_GWT-(1,1,2)
 Model                              4          3 -3.63550862E-02                              3_GWT-(1,1,3)
 Model                              5          3 -9.84168750E-03                              3_GWT-(1,1,3)
 Model                              6          3 -2.80322819E-03                              3_GWT-(1,1,3)
 Model                              7          3 -8.34574254E-04                              3_GWT-(1,1,3)
 Model                              8          2 -2.57742409E-04                              3_GWT-(1,1,3)
 Model                              9          2 -8.20417044E-05                              3_GWT-(1,1,3)
 Model                             10          2 -2.67758223E-05                              3_GWT-(1,1,3)
 Model                             11          2 -8.92255048E-06                              3_GWT-(1,1,3)
 Model                             12          2 -3.02240369E-06                              3_GWT-(1,1,3)
 Model                             13          2 -1.03871571E-06                              3_GWT-(1,1,3)
 Model                             14          1 -3.59585101E-07       *                      3_GWT-(1,1,3)
 ----------------------------------------------------------------------------------------------------------


 14 CALLS TO NUMERICAL SOLUTION IN TIME STEP 1 STRESS PERIOD 1
 38 TOTAL ITERATIONS

 SLN_4 OUTER ITERATION SUMMARY
 ----------------------------------------------------------------------------------------------------------
                                OUTER      INNER                    STEP   MAXIMUM CHANGE MODEL-(CELLID) OR
 OUTER ITERATION STEP       ITERATION  ITERATION  MAXIMUM CHANGE SUCCESS             MODEL-PACKAGE-(NUMBER)
 ----------------------------------------------------------------------------------------------------------
 Model                              1          3 -1.60400912E-02                              4_GWT-(1,1,1)
 Model                              2          3 -4.31871483E-04                              4_GWT-(1,1,2)
 Model                              3          2 -7.16684682E-05                              4_GWT-(1,1,2)
 Model                              4          2  1.77029437E-05                              4_GWT-(1,1,3)
 Model                              5          2  4.79277216E-06                              4_GWT-(1,1,3)
 Model                              6          2  1.36390384E-06                              4_GWT-(1,1,3)
 Model                              7          1  3.98518626E-07       *                      4_GWT-(1,1,3)
 ----------------------------------------------------------------------------------------------------------


 7 CALLS TO NUMERICAL SOLUTION IN TIME STEP 1 STRESS PERIOD 1
 15 TOTAL ITERATIONS

 SLN_5 OUTER ITERATION SUMMARY
 ----------------------------------------------------------------------------------------------------------
                                OUTER      INNER                    STEP   MAXIMUM CHANGE MODEL-(CELLID) OR
 OUTER ITERATION STEP       ITERATION  ITERATION  MAXIMUM CHANGE SUCCESS             MODEL-PACKAGE-(NUMBER)
 ----------------------------------------------------------------------------------------------------------
 Model                              1          4      0.88222923                              5_GWT-(1,1,1)
 Model                              2          3  2.37561220E-02                              5_GWT-(1,1,2)
 Model                              3          3  3.94247276E-03                              5_GWT-(1,1,2)
 Model                              4          3 -9.73679984E-04                              5_GWT-(1,1,3)
 Model                              5          2 -2.63578934E-04                              5_GWT-(1,1,3)
 Model                              6          2 -7.51044370E-05                              5_GWT-(1,1,3)
 Model                              7          2 -2.23668593E-05                              5_GWT-(1,1,3)
 Model                              8          2 -6.90549903E-06                              5_GWT-(1,1,3)
 Model                              9          2 -2.19178428E-06                              5_GWT-(1,1,3)
 Model                             10          1 -7.09610604E-07       *                      5_GWT-(1,1,3)
 ----------------------------------------------------------------------------------------------------------


 10 CALLS TO NUMERICAL SOLUTION IN TIME STEP 1 STRESS PERIOD 1
 24 TOTAL ITERATIONS

 SLN_6 OUTER ITERATION SUMMARY
 ----------------------------------------------------------------------------------------------------------
                                OUTER      INNER                    STEP   MAXIMUM CHANGE MODEL-(CELLID) OR
 OUTER ITERATION STEP       ITERATION  ITERATION  MAXIMUM CHANGE SUCCESS             MODEL-PACKAGE-(NUMBER)
 ----------------------------------------------------------------------------------------------------------
 Model                              1          4     -0.70727340                              6_GWT-(1,1,1)
 Model                              2          3 -1.90901447E-02                              6_GWT-(1,1,2)
 Model                              3          3 -3.16812500E-03                              6_GWT-(1,1,2)
 Model                              4          3  7.82437586E-04                              6_GWT-(1,1,3)
 Model                              5          2  2.11807829E-04                              6_GWT-(1,1,3)
 Model                              6          2  6.03542966E-05                              6_GWT-(1,1,3)
 Model                              7          2  1.79740466E-05                              6_GWT-(1,1,3)
 Model                              8          2  5.54881200E-06                              6_GWT-(1,1,3)
 Model                              9          2  1.76003768E-06                              6_GWT-(1,1,3)
 Model                             10          1  5.69460342E-07       *                      6_GWT-(1,1,3)
 ----------------------------------------------------------------------------------------------------------


 10 CALLS TO NUMERICAL SOLUTION IN TIME STEP 1 STRESS PERIOD 1
 24 TOTAL ITERATIONS

 SLN_7 OUTER ITERATION SUMMARY
 ----------------------------------------------------------------------------------------------------------
                                OUTER      INNER                    STEP   MAXIMUM CHANGE MODEL-(CELLID) OR
 OUTER ITERATION STEP       ITERATION  ITERATION  MAXIMUM CHANGE SUCCESS             MODEL-PACKAGE-(NUMBER)
 ----------------------------------------------------------------------------------------------------------
 Model                              1          4      0.79877753                              7_GWT-(1,1,1)
 Model                              2          3  2.08026648E-02                              7_GWT-(1,1,2)
 Model                              3          3  3.45232945E-03                              7_GWT-(1,1,2)
 Model                              4          3 -8.52628977E-04                              7_GWT-(1,1,3)
 Model                              5          2 -2.30809284E-04                              7_GWT-(1,1,3)
 Model                              6          2 -6.57679221E-05                              7_GWT-(1,1,3)
 Model                              7          2 -1.95861980E-05                              7_GWT-(1,1,3)
 Model                              8          2 -6.04674467E-06                              7_GWT-(1,1,3)
 Model                              9          2 -1.91846810E-06                              7_GWT-(1,1,3)
 Model                             10          1 -6.20975169E-07       *                      7_GWT-(1,1,3)
 ----------------------------------------------------------------------------------------------------------


 10 CALLS TO NUMERICAL SOLUTION IN TIME STEP 1 STRESS PERIOD 1
 24 TOTAL ITERATIONS

 SLN_8 OUTER ITERATION SUMMARY
 ----------------------------------------------------------------------------------------------------------
                                OUTER      INNER                    STEP   MAXIMUM CHANGE MODEL-(CELLID) OR
 OUTER ITERATION STEP       ITERATION  ITERATION  MAXIMUM CHANGE SUCCESS             MODEL-PACKAGE-(NUMBER)
 ----------------------------------------------------------------------------------------------------------
 Model                              1          4     -0.18691706                              8_GWT-(1,1,1)
 Model                              2          3 -5.03264995E-03                              8_GWT-(1,1,2)
 Model                              3          3 -8.35198488E-04                              8_GWT-(1,1,2)
 Model                              4          2  2.06268323E-04                              8_GWT-(1,1,3)
 Model                              5          2  5.58416411E-05                              8_GWT-(1,1,3)
 Model                              6          2  1.59120816E-05                              8_GWT-(1,1,3)
 Model                              7          2  4.73752705E-06                              8_GWT-(1,1,3)
 Model                              8          2  1.45862535E-06                              8_GWT-(1,1,3)
 Model                              9          1  4.59034339E-07       *                      8_GWT-(1,1,3)
 ----------------------------------------------------------------------------------------------------------


 9 CALLS TO NUMERICAL SOLUTION IN TIME STEP 1 STRESS PERIOD 1
 21 TOTAL ITERATIONS

 SLN_9 OUTER ITERATION SUMMARY
 ----------------------------------------------------------------------------------------------------------
                                OUTER      INNER                    STEP   MAXIMUM CHANGE MODEL-(CELLID) OR
 OUTER ITERATION STEP       ITERATION  ITERATION  MAXIMUM CHANGE SUCCESS             MODEL-PACKAGE-(NUMBER)
 ----------------------------------------------------------------------------------------------------------
 Model                              1          4       6.2649154                              9_GWT-(1,1,1)
 Model                              2          4      0.16933611                              9_GWT-(1,1,2)
 Model                              3          3  2.81023561E-02                              9_GWT-(1,1,2)
 Model                              4          3 -6.94048279E-03                              9_GWT-(1,1,3)
 Model                              5          3 -1.87884717E-03                              9_GWT-(1,1,3)
 Model                              6          2 -5.35333171E-04                              9_GWT-(1,1,3)
 Model                              7          2 -1.59410614E-04                              9_GWT-(1,1,3)
 Model                              8          2 -4.92215425E-05                              9_GWT-(1,1,3)
 Model                              9          2 -1.56560097E-05                              9_GWT-(1,1,3)
 Model                             10          2 -5.10086954E-06                              9_GWT-(1,1,3)
 Model                             11          2 -1.69049519E-06                              9_GWT-(1,1,3)
 Model                             12          1 -5.67733293E-07       *                      9_GWT-(1,1,3)
 ----------------------------------------------------------------------------------------------------------


 12 CALLS TO NUMERICAL SOLUTION IN TIME STEP 1 STRESS PERIOD 1
 30 TOTAL ITERATIONS

 SLN_10 OUTER ITERATION SUMMARY
 ----------------------------------------------------------------------------------------------------------
                                OUTER      INNER                    STEP   MAXIMUM CHANGE MODEL-(CELLID) OR
 OUTER ITERATION STEP       ITERATION  ITERATION  MAXIMUM CHANGE SUCCESS             MODEL-PACKAGE-(NUMBER)
 ----------------------------------------------------------------------------------------------------------
 Model                              1          3      0.14906174                             10_GWT-(1,1,1)
 Model                              2          3  4.01341433E-03                             10_GWT-(1,1,2)
 Model                              3          3  6.66050886E-04                             10_GWT-(1,1,2)
 Model                              4          2 -1.64494112E-04                             10_GWT-(1,1,3)
 Model                              5          2 -4.45334946E-05                             10_GWT-(1,1,3)
 Model                              6          2 -1.26895470E-05                             10_GWT-(1,1,3)
 Model                              7          2 -3.77747347E-06                             10_GWT-(1,1,3)
 Model                              8          2 -1.16270027E-06                             10_GWT-(1,1,3)
 Model                              9          1 -3.63937055E-07       *                     10_GWT-(1,1,3)
 ----------------------------------------------------------------------------------------------------------


 9 CALLS TO NUMERICAL SOLUTION IN TIME STEP 1 STRESS PERIOD 1
 20 TOTAL ITERATIONS

 SLN_11 OUTER ITERATION SUMMARY
 ----------------------------------------------------------------------------------------------------------
                                OUTER      INNER                    STEP   MAXIMUM CHANGE MODEL-(CELLID) OR
 OUTER ITERATION STEP       ITERATION  ITERATION  MAXIMUM CHANGE SUCCESS             MODEL-PACKAGE-(NUMBER)
 ----------------------------------------------------------------------------------------------------------
 Model                              1          4     -0.20333130                             11_GWT-(1,1,1)
 Model                              2          3 -5.47459526E-03                             11_GWT-(1,1,2)
 Model                              3          3 -9.08541903E-04                             11_GWT-(1,1,2)
 Model                              4          2  2.24381996E-04                             11_GWT-(1,1,3)
 Model                              5          2  6.07449340E-05                             11_GWT-(1,1,3)
 Model                              6          2  1.73094020E-05                             11_GWT-(1,1,3)
 Model                              7          2  5.15375999E-06                             11_GWT-(1,1,3)
 Model                              8          2  1.58707816E-06                             11_GWT-(1,1,3)
 Model                              9          1  5.00065010E-07       *                     11_GWT-(1,1,3)
 ----------------------------------------------------------------------------------------------------------


 9 CALLS TO NUMERICAL SOLUTION IN TIME STEP 1 STRESS PERIOD 1
 21 TOTAL ITERATIONS

 SLN_12 OUTER ITERATION SUMMARY
[...]
 Model                              1          1                                                       -7.07860437E-11       *                     1_GWF-(7,1,13)
 ----------------------------------------------------------------------------------------------------------------------------------------------------------------


 1 CALLS TO NUMERICAL SOLUTION IN TIME STEP 100 STRESS PERIOD 1
 1 TOTAL ITERATIONS

 SLN_2 OUTER ITERATION SUMMARY
 ----------------------------------------------------------------------------------------------------------
                                OUTER      INNER                    STEP   MAXIMUM CHANGE MODEL-(CELLID) OR
 OUTER ITERATION STEP       ITERATION  ITERATION  MAXIMUM CHANGE SUCCESS             MODEL-PACKAGE-(NUMBER)
 ----------------------------------------------------------------------------------------------------------
 Model                              1          3 -4.34543408E-03                             2_GWT-(1,1,25)
 Model                              2          2 -1.04659601E-04                             2_GWT-(9,1,25)
 Model                              3          2  3.84528539E-06                             2_GWT-(3,1,24)
 Model                              4          1  7.42642442E-07       *                    2_GWT-(10,1,17)
 ----------------------------------------------------------------------------------------------------------


 4 CALLS TO NUMERICAL SOLUTION IN TIME STEP 100 STRESS PERIOD 1
 8 TOTAL ITERATIONS

 SLN_3 OUTER ITERATION SUMMARY
 ----------------------------------------------------------------------------------------------------------
                                OUTER      INNER                    STEP   MAXIMUM CHANGE MODEL-(CELLID) OR
 OUTER ITERATION STEP       ITERATION  ITERATION  MAXIMUM CHANGE SUCCESS             MODEL-PACKAGE-(NUMBER)
 ----------------------------------------------------------------------------------------------------------
 Model                              1          4      0.29051029                             3_GWT-(1,1,25)
 Model                              2          3  6.92586083E-03                            3_GWT-(10,1,25)
 Model                              3          3 -2.56192106E-04                             3_GWT-(1,1,24)
 Model                              4          2  4.72358734E-05                            3_GWT-(10,1,19)
 Model                              5          2  8.04024603E-06                            3_GWT-(10,1,20)
 Model                              6          2  1.24457438E-06                            3_GWT-(10,1,21)
 Model                              7          1 -1.90171704E-07       *                     3_GWT-(7,1,16)
 ----------------------------------------------------------------------------------------------------------


 7 CALLS TO NUMERICAL SOLUTION IN TIME STEP 100 STRESS PERIOD 1
 17 TOTAL ITERATIONS

 SLN_4 OUTER ITERATION SUMMARY
 ----------------------------------------------------------------------------------------------------------
                                OUTER      INNER                    STEP   MAXIMUM CHANGE MODEL-(CELLID) OR
 OUTER ITERATION STEP       ITERATION  ITERATION  MAXIMUM CHANGE SUCCESS             MODEL-PACKAGE-(NUMBER)
 ----------------------------------------------------------------------------------------------------------
 Model                              1          2 -1.41493553E-04                             4_GWT-(2,1,25)
 Model                              2          2 -3.37710403E-06                             4_GWT-(9,1,25)
 Model                              3          1  1.19456976E-07       *                     4_GWT-(2,1,24)
 ----------------------------------------------------------------------------------------------------------


 3 CALLS TO NUMERICAL SOLUTION IN TIME STEP 100 STRESS PERIOD 1
 5 TOTAL ITERATIONS

 SLN_5 OUTER ITERATION SUMMARY
 ----------------------------------------------------------------------------------------------------------
                                OUTER      INNER                    STEP   MAXIMUM CHANGE MODEL-(CELLID) OR
 OUTER ITERATION STEP       ITERATION  ITERATION  MAXIMUM CHANGE SUCCESS             MODEL-PACKAGE-(NUMBER)
 ----------------------------------------------------------------------------------------------------------
 Model                              1          3  7.78291612E-03                             5_GWT-(1,1,25)
 Model                              2          2  1.85542611E-04                             5_GWT-(9,1,25)
 Model                              3          2 -6.85883847E-06                             5_GWT-(1,1,24)
 Model                              4          2  1.27222630E-06                            5_GWT-(10,1,19)
 Model                              5          1  1.99965565E-07       *                    5_GWT-(10,1,20)
 ----------------------------------------------------------------------------------------------------------


 5 CALLS TO NUMERICAL SOLUTION IN TIME STEP 100 STRESS PERIOD 1
 10 TOTAL ITERATIONS

 SLN_6 OUTER ITERATION SUMMARY
 ----------------------------------------------------------------------------------------------------------
                                OUTER      INNER                    STEP   MAXIMUM CHANGE MODEL-(CELLID) OR
 OUTER ITERATION STEP       ITERATION  ITERATION  MAXIMUM CHANGE SUCCESS             MODEL-PACKAGE-(NUMBER)
 ----------------------------------------------------------------------------------------------------------
 Model                              1          3 -6.24328377E-03                             6_GWT-(1,1,25)
 Model                              2          2 -1.48843306E-04                             6_GWT-(9,1,25)
 Model                              3          2  5.50178361E-06                             6_GWT-(1,1,24)
 Model                              4          2 -1.01789960E-06                            6_GWT-(10,1,19)
 Model                              5          1 -1.55803489E-07       *                    6_GWT-(10,1,20)
 ----------------------------------------------------------------------------------------------------------


 5 CALLS TO NUMERICAL SOLUTION IN TIME STEP 100 STRESS PERIOD 1
 10 TOTAL ITERATIONS

 SLN_7 OUTER ITERATION SUMMARY
 ----------------------------------------------------------------------------------------------------------
                                OUTER      INNER                    STEP   MAXIMUM CHANGE MODEL-(CELLID) OR
 OUTER ITERATION STEP       ITERATION  ITERATION  MAXIMUM CHANGE SUCCESS             MODEL-PACKAGE-(NUMBER)
 ----------------------------------------------------------------------------------------------------------
 Model                              1          3  6.98674189E-03                             7_GWT-(1,1,25)
 Model                              2          2  1.66480483E-04                             7_GWT-(9,1,25)
 Model                              3          2 -6.15351692E-06                             7_GWT-(1,1,24)
 Model                              4          2  1.13158586E-06                            7_GWT-(10,1,19)
 Model                              5          1  1.75140033E-07       *                    7_GWT-(10,1,20)
 ----------------------------------------------------------------------------------------------------------


 5 CALLS TO NUMERICAL SOLUTION IN TIME STEP 100 STRESS PERIOD 1
 10 TOTAL ITERATIONS

 SLN_8 OUTER ITERATION SUMMARY
 ----------------------------------------------------------------------------------------------------------
                                OUTER      INNER                    STEP   MAXIMUM CHANGE MODEL-(CELLID) OR
 OUTER ITERATION STEP       ITERATION  ITERATION  MAXIMUM CHANGE SUCCESS             MODEL-PACKAGE-(NUMBER)
 ----------------------------------------------------------------------------------------------------------
 Model                              1          3 -1.64890488E-03                             8_GWT-(1,1,25)
 Model                              2          2 -3.93091449E-05                             8_GWT-(9,1,25)
 Model                              3          2  1.45185094E-06                             8_GWT-(1,1,24)
 Model                              4          1 -2.51193938E-07       *                    8_GWT-(10,1,19)
 ----------------------------------------------------------------------------------------------------------


 4 CALLS TO NUMERICAL SOLUTION IN TIME STEP 100 STRESS PERIOD 1
 8 TOTAL ITERATIONS

 SLN_9 OUTER ITERATION SUMMARY
 ----------------------------------------------------------------------------------------------------------
                                OUTER      INNER                    STEP   MAXIMUM CHANGE MODEL-(CELLID) OR
 OUTER ITERATION STEP       ITERATION  ITERATION  MAXIMUM CHANGE SUCCESS             MODEL-PACKAGE-(NUMBER)
 ----------------------------------------------------------------------------------------------------------
 Model                              1          3  5.53224622E-02                             9_GWT-(1,1,25)
 Model                              2          3  1.31907845E-03                            9_GWT-(10,1,25)
 Model                              3          2 -4.87955283E-05                             9_GWT-(1,1,24)
 Model                              4          2  9.09565603E-06                            9_GWT-(10,1,19)
 Model                              5          2  1.54978459E-06                            9_GWT-(10,1,20)
 Model                              6          1  2.27051217E-07       *                    9_GWT-(10,1,21)
 ----------------------------------------------------------------------------------------------------------


 6 CALLS TO NUMERICAL SOLUTION IN TIME STEP 100 STRESS PERIOD 1
 13 TOTAL ITERATIONS

 SLN_10 OUTER ITERATION SUMMARY
 ----------------------------------------------------------------------------------------------------------
                                OUTER      INNER                    STEP   MAXIMUM CHANGE MODEL-(CELLID) OR
 OUTER ITERATION STEP       ITERATION  ITERATION  MAXIMUM CHANGE SUCCESS             MODEL-PACKAGE-(NUMBER)
 ----------------------------------------------------------------------------------------------------------
 Model                              1          3  1.31496035E-03                            10_GWT-(1,1,25)
 Model                              2          2  3.13479350E-05                            10_GWT-(9,1,25)
 Model                              3          2 -1.15726263E-06                            10_GWT-(1,1,24)
 Model                              4          1  1.95575783E-07       *                   10_GWT-(10,1,19)
 ----------------------------------------------------------------------------------------------------------


 4 CALLS TO NUMERICAL SOLUTION IN TIME STEP 100 STRESS PERIOD 1
 8 TOTAL ITERATIONS

 SLN_11 OUTER ITERATION SUMMARY
 ----------------------------------------------------------------------------------------------------------
                                OUTER      INNER                    STEP   MAXIMUM CHANGE MODEL-(CELLID) OR
 OUTER ITERATION STEP       ITERATION  ITERATION  MAXIMUM CHANGE SUCCESS             MODEL-PACKAGE-(NUMBER)
 ----------------------------------------------------------------------------------------------------------
 Model                              1          3 -1.79370426E-03                            11_GWT-(1,1,25)
 Model                              2          2 -4.27611336E-05                            11_GWT-(9,1,25)
 Model                              3          2  1.57953804E-06                            11_GWT-(1,1,24)
 Model                              4          1 -2.75175772E-07       *                   11_GWT-(10,1,19)
 ----------------------------------------------------------------------------------------------------------


 4 CALLS TO NUMERICAL SOLUTION IN TIME STEP 100 STRESS PERIOD 1
 8 TOTAL ITERATIONS

 SLN_12 OUTER ITERATION SUMMARY
 ----------------------------------------------------------------------------------------------------------
                                OUTER      INNER                    STEP   MAXIMUM CHANGE MODEL-(CELLID) OR
 OUTER ITERATION STEP       ITERATION  ITERATION  MAXIMUM CHANGE SUCCESS             MODEL-PACKAGE-(NUMBER)
 ----------------------------------------------------------------------------------------------------------
 Model                              1          2 -6.78233377E-05                            12_GWT-(2,1,25)
 Model                              2          2 -1.61867343E-06                            12_GWT-(8,1,25)
 Model                              3          1  5.32947360E-08       *                    12_GWT-(1,1,24)
 ----------------------------------------------------------------------------------------------------------


 3 CALLS TO NUMERICAL SOLUTION IN TIME STEP 100 STRESS PERIOD 1
 5 TOTAL ITERATIONS

 SLN_13 OUTER ITERATION SUMMARY
 ----------------------------------------------------------------------------------------------------------
                                OUTER      INNER                    STEP   MAXIMUM CHANGE MODEL-(CELLID) OR
 OUTER ITERATION STEP       ITERATION  ITERATION  MAXIMUM CHANGE SUCCESS             MODEL-PACKAGE-(NUMBER)
 ----------------------------------------------------------------------------------------------------------
 Model                              1          2  1.62892508E-04                            13_GWT-(2,1,25)
 Model                              2          2  3.88785224E-06                            13_GWT-(9,1,25)
 Model                              3          1 -1.38665137E-07       *                    13_GWT-(2,1,24)
 ----------------------------------------------------------------------------------------------------------


 3 CALLS TO NUMERICAL SOLUTION IN TIME STEP 100 STRESS PERIOD 1
 5 TOTAL ITERATIONS

 SLN_14 OUTER ITERATION SUMMARY
 ----------------------------------------------------------------------------------------------------------
                                OUTER      INNER                    STEP   MAXIMUM CHANGE MODEL-(CELLID) OR
 OUTER ITERATION STEP       ITERATION  ITERATION  MAXIMUM CHANGE SUCCESS             MODEL-PACKAGE-(NUMBER)
 ----------------------------------------------------------------------------------------------------------
 Model                              1          3  7.69613370E-02                            14_GWT-(1,1,25)
 Model                              2          3  1.83491848E-03                           14_GWT-(10,1,25)
 Model                              3          2 -6.78758052E-05                            14_GWT-(1,1,24)
 Model                              4          2  1.26432198E-05                           14_GWT-(10,1,19)
 Model                              5          2  2.15588874E-06                           14_GWT-(10,1,20)
 Model                              6          1  3.21945965E-07       *                   14_GWT-(10,1,21)
 ----------------------------------------------------------------------------------------------------------


 6 CALLS TO NUMERICAL SOLUTION IN TIME STEP 100 STRESS PERIOD 1
 13 TOTAL ITERATIONS

 SLN_15 OUTER ITERATION SUMMARY
 ----------------------------------------------------------------------------------------------------------
                                OUTER      INNER                    STEP   MAXIMUM CHANGE MODEL-(CELLID) OR
 OUTER ITERATION STEP       ITERATION  ITERATION  MAXIMUM CHANGE SUCCESS             MODEL-PACKAGE-(NUMBER)
 ----------------------------------------------------------------------------------------------------------
 Model                              1          2  2.65014689E-04                            15_GWT-(2,1,25)
 Model                              2          2  6.35254317E-06                           15_GWT-(10,1,25)
 Model                              3          1 -2.30651287E-07       *                    15_GWT-(2,1,24)
 ----------------------------------------------------------------------------------------------------------


 3 CALLS TO NUMERICAL SOLUTION IN TIME STEP 100 STRESS PERIOD 1
 5 TOTAL ITERATIONS


 Solution SLN_1 summary
 ----------------------------------------------------------------------
 Total formulate time:  .1562500000000000E-01 seconds
 Total solution time:   .000000000000000 seconds



 Solution SLN_2 summary
 ----------------------------------------------------------------------
 Total formulate time:  .1406250000000000 seconds
 Total solution time:   .1562500000000000E-01 seconds



 Solution SLN_3 summary
 ----------------------------------------------------------------------
 Total formulate time:  .1406250000000000 seconds
 Total solution time:   .1562500000000000E-01 seconds



 Solution SLN_4 summary
 ----------------------------------------------------------------------
 Total formulate time:  .6250000000000000E-01 seconds
 Total solution time:   .000000000000000 seconds



 Solution SLN_5 summary
 ----------------------------------------------------------------------
 Total formulate time:  .1093750000000000 seconds
 Total solution time:   .000000000000000 seconds



 Solution SLN_6 summary
 ----------------------------------------------------------------------
 Total formulate time:  .3125000000000000E-01 seconds
 Total solution time:   .000000000000000 seconds



 Solution SLN_7 summary
 ----------------------------------------------------------------------
 Total formulate time:  .7812500000000000E-01 seconds
 Total solution time:   .000000000000000 seconds



 Solution SLN_8 summary
 ----------------------------------------------------------------------
 Total formulate time:  .9375000000000000E-01 seconds
 Total solution time:   .000000000000000 seconds



 Solution SLN_9 summary
 ----------------------------------------------------------------------
 Total formulate time:  .7812500000000000E-01 seconds
 Total solution time:   .3125000000000000E-01 seconds



 Solution SLN_10 summary
 ----------------------------------------------------------------------
 Total formulate time:  .9375000000000000E-01 seconds
 Total solution time:   .1562500000000000E-01 seconds



 Solution SLN_11 summary
 ----------------------------------------------------------------------
 Total formulate time:  .1875000000000000 seconds
 Total solution time:   .000000000000000 seconds



 Solution SLN_12 summary
 ----------------------------------------------------------------------
 Total formulate time:  .4687500000000000E-01 seconds
 Total solution time:   .1562500000000000E-01 seconds



 Solution SLN_13 summary
 ----------------------------------------------------------------------
 Total formulate time:  .7812500000000000E-01 seconds
 Total solution time:   .000000000000000 seconds



 Solution SLN_14 summary
 ----------------------------------------------------------------------
 Total formulate time:  .7812500000000000E-01 seconds
 Total solution time:   .000000000000000 seconds



 Solution SLN_15 summary
 ----------------------------------------------------------------------
 Total formulate time:  .4687500000000000E-01 seconds
 Total solution time:   .000000000000000 seconds


 MEMORY MANAGER TOTAL STORAGE BY DATA TYPE, IN MEGABYTES
 -------------------------------
                    ALLOCATED   
 DATA TYPE           MEMORY     
 -------------------------------
 Character        0.69341800    
 Logical          1.05600000E-03
 Integer          7.6787960     
 Real             21.499192     
 -------------------------------
 Total            29.872462     
 Virtual          0.0000000     
 -------------------------------


 
 Run end date and time (yyyy/mm/dd hh:mm:ss): 2024/07/04 16:28:12
 Elapsed run time: 15.836 Seconds
 Normal termination of simulation.
