                                   MODFLOW 6
                U.S. GEOLOGICAL SURVEY MODULAR HYDROLOGIC MODEL
                       GROUNDWATER TRANSPORT MODEL (GWT)
                VERSION 6.5.0.dev0+prt (preliminary) 10/07/2023
                               ***DEVELOP MODE***

   MODFLOW 6 compiled Oct 07 2023 02:19:02 with Intel(R) Fortran Intel(R) 64
   Compiler Classic for applications running on Intel(R) 64, Version 2021.7.0
                             Build 20220726_000000

This software is preliminary or provisional and is subject to 
revision. It is being provided to meet the need for timely best 
science. The software has not received final approval by the U.S. 
Geological Survey (USGS). No warranty, expressed or implied, is made 
by the USGS or the U.S. Government as to the functionality of the 
software and related material nor shall the fact of release 
constitute any such warranty. The software is provided on the 
condition that neither the USGS nor the U.S. Government shall be held 
liable for any damages resulting from the authorized or unauthorized 
use of the software.


As a work of the United States Government, this USGS product is 
in the public domain within the United States. You can copy, 
modify, distribute, and perform the work, even for commercial 
purposes, all without asking permission. Additionally, USGS 
waives copyright and related rights in the work worldwide 
through CC0 1.0 Universal Public Domain Dedication 
(https://creativecommons.org/publicdomain/zero/1.0/).

The following GNU Lesser General Public License (LGPL) libraries
are used in this USGS product:

    SPARSKIT version 2.0
      ilut, luson, and qsplit 
      (https://www-users.cse.umn.edu/~saad/software/SPARSKIT/)

    RCM - Reverse Cuthill McKee Ordering
      (https://people.math.sc.edu/Burkardt/f_src/rcm/rcm.html)

    BLAS - Basic Linear Algebra Subprograms Level 1
      (https://people.math.sc.edu/Burkardt/f_src/blas1_d/blas1_d.html)

    SPARSEKIT - Sparse Matrix Utility Package
      amux, dperm, dvperm, rperm, and cperm
      (https://people.sc.fsu.edu/~jburkardt/f77_src/sparsekit/sparsekit.html)

The following BSD-3 License libraries are used in this USGS product:

    Modern Fortran DAG Library
      Copyright (c) 2018, Jacob Williams
      All rights reserved.
      (https://github.com/jacobwilliams/daglib)

MODFLOW 6 compiler options: /Isrc\libmf6core.a.p /Isrc /I..\src
/Isrc\libmf6_external.a.p /MTd /nologo /warn:general /warn:truncated_source
/stand:f08 /Zi /traceback /O2 /fpe:0 /heap-arrays:0 /traceback /fpp
/Qdiag-disable:7416 /Qdiag-disable:7025 /Qdiag-disable:5268
/Fdsrc\libmf6core.a.p\Utilities_compilerversion.F90.pdb
/module:src\libmf6core.a.p
/Fosrc/libmf6core.a.p/Utilities_compilerversion.F90.obj /c

System command used to initiate simulation:
c:\Users\portega\anaconda3\envs\mf6rtm\python.exe -m ipykernel_launcher --f=c:\Users\portega\AppData\Roaming\jupyter\runtime\kernel-v2-17404iCBvKc1FbHvz.json

MODFLOW was compiled using uniform precision.

Real Variables
  KIND: 8
  TINY (smallest non-zero value):    2.225074-308
  HUGE (largest value):    1.797693+308
  PRECISION: 15
  SIZE IN BITS: 64

Integer Variables
  KIND: 4
  HUGE (largest value): 2147483647
  SIZE IN BITS: 32

Long Integer Variables
  KIND: 8
  HUGE (largest value): 9223372036854775807
  SIZE IN BITS: 64

Logical Variables
  KIND: 4
  SIZE IN BITS: 32
 
 NAMEFILE OPTIONS:
 END NAMEFILE OPTIONS:

 DIS -- STRUCTURED GRID DISCRETIZATION PACKAGE, VERSION 2 : 3/27/2014 - INPUT READ FROM MEMPATH: __INPUT__/MG/DIS                                  


 DSP-- DISPERSION PACKAGE, VERSION 1, 1/24/2018 INPUT READ FROM MEMPATH: __INPUT__/MG/DSP                                  


 Setting Discretization Options
    Model length unit [0=UND, 1=FEET, 2=METERS, 3=CENTIMETERS] set as 2
 End Setting Discretization Options

 Setting Discretization Dimensions
    NLAY = 10
    NROW = 1
    NCOL = 25
 End Setting Discretization Dimensions

 Setting Discretization Griddata
    DELR set from input file
    DELC set from input file
    TOP set from input file
    BOTM set from input file
    IDOMAIN set from input file
 End Setting Discretization Griddata


 FMI -- FLOW MODEL INTERFACE,' VERSION 2, 8/17/2023
  FLOWS PROVIDED BY A GWF MODEL IN THIS SIMULATION

 ADV-- ADVECTION PACKAGE, VERSION 1, 8/25/2017 INPUT READ FROM UNIT 6212


 # File generated by Flopy version 3.5.0.dev0 on 07/12/2024 at 09:44:05.
 PROCESSING ADVECTION OPTIONS
    ADVECTION WEIGHTING SCHEME HAS BEEN SET TO: TVD
 END OF ADVECTION OPTIONS
 Setting DSP Options
    XT3D formulation [0=INACTIVE, 1=ACTIVE, 3=ACTIVE RHS] set to: 0
 End Setting DSP Options

 Setting DSP Griddata
    ALH set from input file
    ATH1 set from input file
    ATV set from input file
 End Setting DSP Griddata


 CNC   -- CNC PACKAGE, VERSION 8, 2/22/2014 INPUT READ FROM UNIT 6246
 # File generated by Flopy version 3.5.0.dev0 on 07/12/2024 at 09:44:05.

 PROCESSING CNC OPTIONS
    CNC FLOWS WILL BE PRINTED TO LISTING FILE.
    FLOWS WILL BE SAVED TO BUDGET FILE SPECIFIED IN OUTPUT CONTROL
 END OF CNC OPTIONS

 PROCESSING CNC DIMENSIONS
    MAXBOUND =       7
 END OF CNC DIMENSIONS

 IC -- INITIAL CONDITIONS PACKAGE, VERSION 8, 3/28/2015 INPUT READ FROM UNIT 6210
 # File generated by Flopy version 3.5.0.dev0 on 07/12/2024 at 09:44:05.
 PROCESSING GRIDDATA

 OPENED Mg.ic_strt_layer1.txt
 FILE TYPE:OPEN/CLOSE   UNIT 6656   STATUS:OLD                 
 FORMAT:FORMATTED              ACCESS:SEQUENTIAL          
 ACTION:READ                


 OPENED Mg.ic_strt_layer2.txt
 FILE TYPE:OPEN/CLOSE   UNIT 6657   STATUS:OLD                 
 FORMAT:FORMATTED              ACCESS:SEQUENTIAL          
 ACTION:READ                


 OPENED Mg.ic_strt_layer3.txt
 FILE TYPE:OPEN/CLOSE   UNIT 6658   STATUS:OLD                 
 FORMAT:FORMATTED              ACCESS:SEQUENTIAL          
 ACTION:READ                


 OPENED Mg.ic_strt_layer4.txt
 FILE TYPE:OPEN/CLOSE   UNIT 6659   STATUS:OLD                 
 FORMAT:FORMATTED              ACCESS:SEQUENTIAL          
 ACTION:READ                


 OPENED Mg.ic_strt_layer5.txt
 FILE TYPE:OPEN/CLOSE   UNIT 6660   STATUS:OLD                 
 FORMAT:FORMATTED              ACCESS:SEQUENTIAL          
 ACTION:READ                


 OPENED Mg.ic_strt_layer6.txt
 FILE TYPE:OPEN/CLOSE   UNIT 6661   STATUS:OLD                 
 FORMAT:FORMATTED              ACCESS:SEQUENTIAL          
 ACTION:READ                


 OPENED Mg.ic_strt_layer7.txt
 FILE TYPE:OPEN/CLOSE   UNIT 6662   STATUS:OLD                 
 FORMAT:FORMATTED              ACCESS:SEQUENTIAL          
 ACTION:READ                


 OPENED Mg.ic_strt_layer8.txt
 FILE TYPE:OPEN/CLOSE   UNIT 6663   STATUS:OLD                 
 FORMAT:FORMATTED              ACCESS:SEQUENTIAL          
 ACTION:READ                


 OPENED Mg.ic_strt_layer9.txt
 FILE TYPE:OPEN/CLOSE   UNIT 6664   STATUS:OLD                 
 FORMAT:FORMATTED              ACCESS:SEQUENTIAL          
 ACTION:READ                


 OPENED Mg.ic_strt_layer10.txt
 FILE TYPE:OPEN/CLOSE   UNIT 6665   STATUS:OLD                 
 FORMAT:FORMATTED              ACCESS:SEQUENTIAL          
 ACTION:READ                

 END PROCESSING GRIDDATA

 MST -- MOBILE STORAGE AND TRANSFER PACKAGE, VERSION 1, 7/29/2020 INPUT READ FROM UNIT 6211


 # File generated by Flopy version 3.5.0.dev0 on 07/12/2024 at 09:44:05.
 PROCESSING MOBILE STORAGE AND TRANSFER OPTIONS
 END OF MOBILE STORAGE AND TRANSFER OPTIONS
 PROCESSING GRIDDATA

 OPENED Mg.mst_porosity.txt
 FILE TYPE:OPEN/CLOSE   UNIT 6666   STATUS:OLD                 
 FORMAT:FORMATTED              ACCESS:SEQUENTIAL          
 ACTION:READ                

 END PROCESSING GRIDDATA

 SSM -- SOURCE-SINK MIXING PACKAGE, VERSION 1, 8/25/2017 INPUT READ FROM UNIT 6244


 # File generated by Flopy version 3.5.0.dev0 on 07/12/2024 at 09:44:05.
 PROCESSING SSM OPTIONS
    SSM FLOW INFORMATION WILL BE PRINTED TO LISTING FILE WHENEVER ICBCFL IS NOT ZERO.
    CELL-BY-CELL FLOW INFORMATION WILL BE SAVED TO BINARY FILE WHENEVER ICBCFL IS NOT ZERO.
 END OF SSM OPTIONS

 OPENED Mg.ssm_sources.txt
 FILE TYPE:OPEN/CLOSE   UNIT 6667   STATUS:OLD                 
 FORMAT:FORMATTED              ACCESS:SEQUENTIAL          
 ACTION:READ                

 PROCESSING SOURCES
 AUX SOURCE DETECTED.
    USING AUX COLUMN 10 IN PACKAGE CHD
 END PROCESSING SOURCES
 OPTIONAL FILEINPUT BLOCK NOT FOUND.  CONTINUING.
      THE LAST TIME STEP WILL BE PRINTED
      THE LAST TIME STEP WILL BE PRINTED
 # File generated by Flopy version 3.5.0.dev0 on 07/12/2024 at 09:44:05.

 PROCESSING OC OPTIONS

    BUDGET INFORMATION WILL BE WRITTEN TO:
      UNIT NUMBER: 6668
      FILE NAME: Mg.cbb

 OPENED Mg.cbb
 FILE TYPE:DATA(BINARY)   UNIT 6668   STATUS:REPLACE             
 FORMAT:UNFORMATTED            ACCESS:STREAM              
 ACTION:READWRITE           

    CONCENTRATION INFORMATION WILL BE WRITTEN TO:
      UNIT NUMBER: 6669
      FILE NAME: Mg.ucn

 OPENED Mg.ucn
 FILE TYPE:DATA(BINARY)   UNIT 6669   STATUS:REPLACE             
 FORMAT:UNFORMATTED            ACCESS:STREAM              
 ACTION:READWRITE           

 END OF OC OPTIONS

start timestep kper="1" kstp="1" mode="normal"


 BEGIN READING OUTPUT CONTROL FOR STRESS PERIOD 1
      ALL TIME STEPS WILL BE SAVED
      ALL TIME STEPS WILL BE SAVED
      ALL TIME STEPS WILL BE PRINTED
      ALL TIME STEPS WILL BE PRINTED

 END READING OUTPUT CONTROL FOR STRESS PERIOD 1

 OPENED Mg.cnc_stress_period_data_1.txt
 FILE TYPE:OPEN/CLOSE   UNIT 6735   STATUS:OLD                 
 FORMAT:FORMATTED              ACCESS:SEQUENTIAL          
 ACTION:READ                

 UBDSV06 SAVING  SOURCE-SINK MIX IN MODEL MG               PACKAGE MG              CONNECTED TO MODEL MG               PACKAGE SSM              ON UNIT   6668 AT TIME STEP      1, STRESS PERIOD      1
 UBDSV06 SAVING              CNC IN MODEL MG               PACKAGE MG              CONNECTED TO MODEL MG               PACKAGE CNC              ON UNIT   6668 AT TIME STEP      1, STRESS PERIOD      1

 SSM PACKAGE (SSM) FLOW RATES   PERIOD      1   STEP        1
 ------------------------------------------------------------------------------------------------
   NUMBER   CELLID                   BOUND Q        SSM CONC          RATE         PACKAGE NAME  
 ------------------------------------------------------------------------------------------------
     1      (1,1,1)               2.08333361E-02  0.96613468      2.01278085E-02       CHD       
     2      (2,1,1)               2.08333361E-02  0.96613468      2.01278085E-02       CHD       
     3      (3,1,1)               2.08333361E-02  0.96613468      2.01278085E-02       CHD       
     4      (4,1,1)               0.0000000       0.0000000       0.0000000            CHD       
     5      (5,1,1)               0.0000000       0.0000000       0.0000000            CHD       
     6      (6,1,1)               0.0000000       0.0000000       0.0000000            CHD       
     7      (7,1,1)               0.0000000       0.0000000       0.0000000            CHD       
     8      (8,1,1)               0.0000000       0.0000000       0.0000000            CHD       
     9      (9,1,1)               0.0000000       0.0000000       0.0000000            CHD       
     10     (10,1,1)              0.0000000       0.0000000       0.0000000            CHD       
     11     (1,1,25)             -2.08333402E-02  1.9542043      -4.07126031E-02       CHD       
     12     (2,1,25)             -2.08333402E-02  1.9542043      -4.07126031E-02       CHD       
     13     (3,1,25)             -2.08333402E-02  1.9542043      -4.07126032E-02       CHD       
     14     (4,1,25)             -2.08333403E-02  1.9542043      -4.07126032E-02       CHD       
     15     (5,1,25)             -2.08333403E-02  1.9542043      -4.07126032E-02       CHD       
     16     (6,1,25)             -2.08333403E-02  1.9542043      -4.07126033E-02       CHD       
     17     (7,1,25)             -2.08333403E-02  1.9542043      -4.07126033E-02       CHD       
     18     (8,1,25)             -2.08333403E-02  1.9542043      -4.07126033E-02       CHD       
     19     (9,1,25)             -2.08333403E-02  1.9542043      -4.07126033E-02       CHD       
     20     (10,1,25)            -2.08333403E-02  1.9542043      -4.07126033E-02       CHD       
 ------------------------------------------------------------------------------------------------




 CNC PACKAGE (CNC) FLOW RATES   PERIOD      1   STEP        1
 -----------------------------------------------
   NUMBER   CELLID                    RATE      
 -----------------------------------------------
     1      (4,1,1)               5.52774348E-02
     2      (5,1,1)               4.07369362E-02
     3      (6,1,1)               4.07224605E-02
     4      (7,1,1)               4.07166094E-02
     5      (8,1,1)               4.07142459E-02
     6      (9,1,1)               4.07133075E-02
     7      (10,1,1)              4.07129798E-02
 -----------------------------------------------



1
  CONCENTRATION IN LAYER   1 AT END OF TIME STEP   1 IN STRESS PERIOD    1
  ---------------------------------------------------------------------------

                1               2               3               4               5               6               7               8               9              10
               11              12              13              14              15              16              17              18              19              20
               21              22              23              24              25
 ................................................................................................................................................................
   1  1.846385651     1.935538672     1.952449256     1.954048718     1.954190294     1.954203026     1.954204185     1.954204288     1.954204304     1.954204312    
      1.954204312     1.954204307     1.954204300     1.954204297     1.954204298     1.954204299     1.954204299     1.954204297     1.954204296     1.954204297    
      1.954204298     1.954204300     1.954204301     1.954204303     1.954204304    
1
  CONCENTRATION IN LAYER   2 AT END OF TIME STEP   1 IN STRESS PERIOD    1
  ---------------------------------------------------------------------------

                1               2               3               4               5               6               7               8               9              10
               11              12              13              14              15              16              17              18              19              20
               21              22              23              24              25
 ................................................................................................................................................................
   1  1.856384559     1.937847233     1.952642611     1.954062072     1.954191257     1.954203105     1.954204190     1.954204285     1.954204305     1.954204318    
      1.954204318     1.954204308     1.954204296     1.954204292     1.954204294     1.954204296     1.954204295     1.954204292     1.954204291     1.954204292    
      1.954204294     1.954204297     1.954204300     1.954204303     1.954204304    
1
  CONCENTRATION IN LAYER   3 AT END OF TIME STEP   1 IN STRESS PERIOD    1
  ---------------------------------------------------------------------------

                1               2               3               4               5               6               7               8               9              10
               11              12              13              14              15              16              17              18              19              20
               21              22              23              24              25
 ................................................................................................................................................................
   1  1.884582174     1.942728927     1.952979481     1.954084715     1.954192949     1.954203245     1.954204198     1.954204280     1.954204306     1.954204327    
      1.954204327     1.954204309     1.954204290     1.954204284     1.954204287     1.954204291     1.954204289     1.954204285     1.954204283     1.954204285    
      1.954204289     1.954204293     1.954204297     1.954204302     1.954204304    
1
  CONCENTRATION IN LAYER   4 AT END OF TIME STEP   1 IN STRESS PERIOD    1
  ---------------------------------------------------------------------------

                1               2               3               4               5               6               7               8               9              10
               11              12              13              14              15              16              17              18              19              20
               21              22              23              24              25
 ................................................................................................................................................................
   1  1.954204300     1.949578777     1.953318273     1.954109877     1.954195018     1.954203419     1.954204209     1.954204276     1.954204308     1.954204336    
      1.954204335     1.954204311     1.954204285     1.954204277     1.954204283     1.954204287     1.954204285     1.954204280     1.954204277     1.954204279    
      1.954204284     1.954204290     1.954204295     1.954204302     1.954204304    
1
  CONCENTRATION IN LAYER   5 AT END OF TIME STEP   1 IN STRESS PERIOD    1
  ---------------------------------------------------------------------------

                1               2               3               4               5               6               7               8               9              10
               11              12              13              14              15              16              17              18              19              20
               21              22              23              24              25
 ................................................................................................................................................................
   1  1.954204300     1.952334910     1.953685176     1.954137221     1.954197199     1.954203603     1.954204221     1.954204274     1.954204309     1.954204341    
      1.954204340     1.954204312     1.954204282     1.954204274     1.954204281     1.954204286     1.954204283     1.954204277     1.954204273     1.954204275    
      1.954204281     1.954204288     1.954204294     1.954204301     1.954204304    
1
  CONCENTRATION IN LAYER   6 AT END OF TIME STEP   1 IN STRESS PERIOD    1
  ---------------------------------------------------------------------------

                1               2               3               4               5               6               7               8               9              10
               11              12              13              14              15              16              17              18              19              20
               21              22              23              24              25
 ................................................................................................................................................................
   1  1.954204300     1.953446644     1.953928249     1.954160590     1.954199196     1.954203775     1.954204234     1.954204274     1.954204309     1.954204343    
      1.954204342     1.954204313     1.954204282     1.954204273     1.954204280     1.954204287     1.954204283     1.954204276     1.954204272     1.954204274    
      1.954204280     1.954204287     1.954204293     1.954204301     1.954204304    
1
  CONCENTRATION IN LAYER   7 AT END OF TIME STEP   1 IN STRESS PERIOD    1
  ---------------------------------------------------------------------------

                1               2               3               4               5               6               7               8               9              10
               11              12              13              14              15              16              17              18              19              20
               21              22              23              24              25
 ................................................................................................................................................................
   1  1.954204300     1.953896010     1.954065220     1.954177536     1.954200807     1.954203919     1.954204247     1.954204276     1.954204309     1.954204342    
      1.954204340     1.954204313     1.954204283     1.954204275     1.954204282     1.954204287     1.954204284     1.954204277     1.954204273     1.954204275    
      1.954204281     1.954204288     1.954204293     1.954204301     1.954204304    
1
  CONCENTRATION IN LAYER   8 AT END OF TIME STEP   1 IN STRESS PERIOD    1
  ---------------------------------------------------------------------------

                1               2               3               4               5               6               7               8               9              10
               11              12              13              14              15              16              17              18              19              20
               21              22              23              24              25
 ................................................................................................................................................................
   1  1.954204300     1.954077529     1.954135946     1.954188442     1.954201964     1.954204028     1.954204258     1.954204279     1.954204309     1.954204338    
      1.954204337     1.954204312     1.954204285     1.954204278     1.954204284     1.954204289     1.954204286     1.954204280     1.954204276     1.954204278    
      1.954204283     1.954204289     1.954204294     1.954204301     1.954204304    
1
  CONCENTRATION IN LAYER   9 AT END OF TIME STEP   1 IN STRESS PERIOD    1
  ---------------------------------------------------------------------------

                1               2               3               4               5               6               7               8               9              10
               11              12              13              14              15              16              17              18              19              20
               21              22              23              24              25
 ................................................................................................................................................................
   1  1.954204300     1.954149601     1.954169707     1.954194660     1.954202687     1.954204097     1.954204267     1.954204284     1.954204308     1.954204332    
      1.954204331     1.954204311     1.954204289     1.954204282     1.954204287     1.954204291     1.954204289     1.954204284     1.954204281     1.954204283    
      1.954204287     1.954204292     1.954204296     1.954204301     1.954204304    
1
  CONCENTRATION IN LAYER  10 AT END OF TIME STEP   1 IN STRESS PERIOD    1
  ---------------------------------------------------------------------------

                1               2               3               4               5               6               7               8               9              10
               11              12              13              14              15              16              17              18              19              20
               21              22              23              24              25
 ................................................................................................................................................................
   1  1.954204300     1.954174766     1.954183033     1.954197421     1.954203020     1.954204125     1.954204274     1.954204291     1.954204306     1.954204320    
      1.954204320     1.954204309     1.954204296     1.954204291     1.954204294     1.954204296     1.954204295     1.954204292     1.954204291     1.954204291    
      1.954204293     1.954204296     1.954204299     1.954204302     1.954204304    

 CONCENTRATION WILL BE SAVED ON UNIT 6669 AT END OF TIME STEP    1, STRESS PERIOD    1


  MASS BUDGET FOR ENTIRE MODEL AT END OF TIME STEP    1, STRESS PERIOD   1
  ---------------------------------------------------------------------------------------------------

     CUMULATIVE MASS      M       RATES FOR THIS TIME STEP      M/T          PACKAGE NAME    
     ------------------                 ------------------------                     ----------------

           IN:                                      IN:
           ---                                      ---
     STORAGE-AQUEOUS =           0.4715       STORAGE-AQUEOUS =       4.7149E-02     MST                              
                 CHD =           0.6038                   CHD =       6.0383E-02     SSM_CHD                          
                 CNC =           2.9959                   CNC =           0.2996     CNC                              

            TOTAL IN =           4.0713              TOTAL IN =           0.4071

          OUT:                                     OUT:
          ----                                     ----
     STORAGE-AQUEOUS =       8.7549E-07       STORAGE-AQUEOUS =       8.7549E-08     MST                              
                 CHD =           4.0713                   CHD =           0.4071     SSM_CHD                          
                 CNC =           0.0000                   CNC =           0.0000     CNC                              

           TOTAL OUT =           4.0713             TOTAL OUT =           0.4071

            IN - OUT =      -1.1204E-09              IN - OUT =      -1.1204E-10

 PERCENT DISCREPANCY =          -0.00     PERCENT DISCREPANCY =          -0.00




         TIME SUMMARY AT END OF TIME STEP    1 IN STRESS PERIOD    1
                    SECONDS     MINUTES      HOURS       DAYS        YEARS
                    -----------------------------------------------------------
   TIME STEP LENGTH 8.64000E+05  14400.      240.00      10.000     2.73785E-02
 STRESS PERIOD TIME 8.64000E+05  14400.      240.00      10.000     2.73785E-02
         TOTAL TIME 8.64000E+05  14400.      240.00      10.000     2.73785E-02


end timestep


start timestep kper="1" kstp="2" mode="normal"

 UBDSV06 SAVING  SOURCE-SINK MIX IN MODEL MG               PACKAGE MG              CONNECTED TO MODEL MG               PACKAGE SSM              ON UNIT   6668 AT TIME STEP      2, STRESS PERIOD      1
 UBDSV06 SAVING              CNC IN MODEL MG               PACKAGE MG              CONNECTED TO MODEL MG               PACKAGE CNC              ON UNIT   6668 AT TIME STEP      2, STRESS PERIOD      1

 SSM PACKAGE (SSM) FLOW RATES   PERIOD      1   STEP        2
 ------------------------------------------------------------------------------------------------
   NUMBER   CELLID                   BOUND Q        SSM CONC          RATE         PACKAGE NAME  
 ------------------------------------------------------------------------------------------------
     1      (1,1,1)               2.08333319E-02  0.96613468      2.01278044E-02       CHD       
     2      (2,1,1)               2.08333319E-02  0.96613468      2.01278044E-02       CHD       
     3      (3,1,1)               2.08333319E-02  0.96613468      2.01278044E-02       CHD       
     4      (4,1,1)               0.0000000       0.0000000       0.0000000            CHD       
     5      (5,1,1)               0.0000000       0.0000000       0.0000000            CHD       
     6      (6,1,1)               0.0000000       0.0000000       0.0000000            CHD       
     7      (7,1,1)               0.0000000       0.0000000       0.0000000            CHD       
     8      (8,1,1)               0.0000000       0.0000000       0.0000000            CHD       
     9      (9,1,1)               0.0000000       0.0000000       0.0000000            CHD       
     10     (10,1,1)              0.0000000       0.0000000       0.0000000            CHD       
     11     (1,1,25)             -2.08333370E-02  1.9542043      -4.07125968E-02       CHD       
     12     (2,1,25)             -2.08333370E-02  1.9542043      -4.07125968E-02       CHD       
     13     (3,1,25)             -2.08333370E-02  1.9542043      -4.07125968E-02       CHD       
     14     (4,1,25)             -2.08333370E-02  1.9542043      -4.07125968E-02       CHD       
     15     (5,1,25)             -2.08333370E-02  1.9542043      -4.07125968E-02       CHD       
     16     (6,1,25)             -2.08333370E-02  1.9542043      -4.07125969E-02       CHD       
     17     (7,1,25)             -2.08333370E-02  1.9542043      -4.07125969E-02       CHD       
     18     (8,1,25)             -2.08333370E-02  1.9542043      -4.07125969E-02       CHD       
     19     (9,1,25)             -2.08333370E-02  1.9542043      -4.07125969E-02       CHD       
     20     (10,1,25)            -2.08333370E-02  1.9542043      -4.07125969E-02       CHD       
 ------------------------------------------------------------------------------------------------




 CNC PACKAGE (CNC) FLOW RATES   PERIOD      1   STEP        2
 -----------------------------------------------
   NUMBER   CELLID                    RATE      
 -----------------------------------------------
     1      (4,1,1)               6.36092624E-02
     2      (5,1,1)               4.07861634E-02
     3      (6,1,1)               4.07457048E-02
     4      (7,1,1)               4.07274250E-02
     5      (8,1,1)               4.07192711E-02
     6      (9,1,1)               4.07157465E-02
     7      (10,1,1)              4.07144371E-02
 -----------------------------------------------



1
  CONCENTRATION IN LAYER   1 AT END OF TIME STEP   2 IN STRESS PERIOD    1
  ---------------------------------------------------------------------------

                1               2               3               4               5               6               7               8               9              10
               11              12              13              14              15              16              17              18              19              20
               21              22              23              24              25
 ................................................................................................................................................................
   1  1.771010883     1.909766892     1.948339204     1.953528864     1.954129276     1.954196124     1.954203428     1.954204216     1.954204301     1.954204310    
      1.954204309     1.954204305     1.954204299     1.954204295     1.954204293     1.954204292     1.954204290     1.954204289     1.954204289     1.954204290    
      1.954204292     1.954204295     1.954204298     1.954204302     1.954204304    
1
  CONCENTRATION IN LAYER   2 AT END OF TIME STEP   2 IN STRESS PERIOD    1
  ---------------------------------------------------------------------------

                1               2               3               4               5               6               7               8               9              10
               11              12              13              14              15              16              17              18              19              20
               21              22              23              24              25
 ................................................................................................................................................................
   1  1.792174403     1.915603486     1.948960226     1.953581642     1.954133860     1.954196541     1.954203471     1.954204226     1.954204305     1.954204310    
      1.954204307     1.954204303     1.954204298     1.954204293     1.954204290     1.954204287     1.954204285     1.954204284     1.954204284     1.954204286    
      1.954204289     1.954204292     1.954204296     1.954204301     1.954204304    
1
  CONCENTRATION IN LAYER   3 AT END OF TIME STEP   2 IN STRESS PERIOD    1
  ---------------------------------------------------------------------------

                1               2               3               4               5               6               7               8               9              10
               11              12              13              14              15              16              17              18              19              20
               21              22              23              24              25
 ................................................................................................................................................................
   1  1.845078344     1.927090673     1.950018318     1.953671401     1.954142000     1.954197303     1.954203550     1.954204242     1.954204311     1.954204310    
      1.954204303     1.954204300     1.954204296     1.954204291     1.954204285     1.954204280     1.954204277     1.954204276     1.954204277     1.954204280    
      1.954204283     1.954204288     1.954204293     1.954204301     1.954204303    
1
  CONCENTRATION IN LAYER   4 AT END OF TIME STEP   2 IN STRESS PERIOD    1
  ---------------------------------------------------------------------------

                1               2               3               4               5               6               7               8               9              10
               11              12              13              14              15              16              17              18              19              20
               21              22              23              24              25
 ................................................................................................................................................................
   1  1.954204300     1.941754787     1.951107263     1.953774178     1.954152190     1.954198293     1.954203650     1.954204258     1.954204317     1.954204311    
      1.954204301     1.954204297     1.954204294     1.954204289     1.954204281     1.954204274     1.954204269     1.954204269     1.954204271     1.954204274    
      1.954204278     1.954204284     1.954204290     1.954204300     1.954204303    
1
  CONCENTRATION IN LAYER   5 AT END OF TIME STEP   2 IN STRESS PERIOD    1
  ---------------------------------------------------------------------------

                1               2               3               4               5               6               7               8               9              10
               11              12              13              14              15              16              17              18              19              20
               21              22              23              24              25
 ................................................................................................................................................................
   1  1.954204300     1.948553612     1.952271024     1.953886702     1.954163162     1.954199376     1.954203759     1.954204273     1.954204320     1.954204311    
      1.954204300     1.954204297     1.954204294     1.954204288     1.954204279     1.954204270     1.954204265     1.954204265     1.954204267     1.954204270    
      1.954204275     1.954204281     1.954204288     1.954204299     1.954204303    
1
  CONCENTRATION IN LAYER   6 AT END OF TIME STEP   2 IN STRESS PERIOD    1
  ---------------------------------------------------------------------------

                1               2               3               4               5               6               7               8               9              10
               11              12              13              14              15              16              17              18              19              20
               21              22              23              24              25
 ................................................................................................................................................................
   1  1.954204300     1.951660832     1.953100195     1.953987141     1.954173537     1.954200427     1.954203865     1.954204284     1.954204322     1.954204312    
      1.954204300     1.954204297     1.954204294     1.954204288     1.954204278     1.954204269     1.954204264     1.954204264     1.954204266     1.954204269    
      1.954204274     1.954204280     1.954204287     1.954204298     1.954204303    
1
  CONCENTRATION IN LAYER   7 AT END OF TIME STEP   2 IN STRESS PERIOD    1
  ---------------------------------------------------------------------------

                1               2               3               4               5               6               7               8               9              10
               11              12              13              14              15              16              17              18              19              20
               21              22              23              24              25
 ................................................................................................................................................................
   1  1.954204300     1.953064714     1.953606255     1.954064036     1.954182243     1.954201344     1.954203957     1.954204291     1.954204322     1.954204312    
      1.954204300     1.954204298     1.954204295     1.954204289     1.954204279     1.954204271     1.954204266     1.954204265     1.954204267     1.954204270    
      1.954204275     1.954204281     1.954204288     1.954204298     1.954204303    
1
  CONCENTRATION IN LAYER   8 AT END OF TIME STEP   2 IN STRESS PERIOD    1
  ---------------------------------------------------------------------------

                1               2               3               4               5               6               7               8               9              10
               11              12              13              14              15              16              17              18              19              20
               21              22              23              24              25
 ................................................................................................................................................................
   1  1.954204300     1.953690937     1.953888088     1.954116257     1.954188759     1.954202061     1.954204030     1.954204296     1.954204320     1.954204312    
      1.954204301     1.954204299     1.954204296     1.954204290     1.954204281     1.954204274     1.954204269     1.954204269     1.954204270     1.954204273    
      1.954204277     1.954204283     1.954204289     1.954204298     1.954204303    
1
  CONCENTRATION IN LAYER   9 AT END OF TIME STEP   2 IN STRESS PERIOD    1
  ---------------------------------------------------------------------------

                1               2               3               4               5               6               7               8               9              10
               11              12              13              14              15              16              17              18              19              20
               21              22              23              24              25
 ................................................................................................................................................................
   1  1.954204300     1.953961627     1.954031714     1.954147448     1.954192993     1.954202544     1.954204077     1.954204295     1.954204317     1.954204312    
      1.954204303     1.954204300     1.954204297     1.954204291     1.954204285     1.954204278     1.954204275     1.954204274     1.954204275     1.954204277    
      1.954204281     1.954204286     1.954204291     1.954204299     1.954204303    
1
  CONCENTRATION IN LAYER  10 AT END OF TIME STEP   2 IN STRESS PERIOD    1
  ---------------------------------------------------------------------------

                1               2               3               4               5               6               7               8               9              10
               11              12              13              14              15              16              17              18              19              20
               21              22              23              24              25
 ................................................................................................................................................................
   1  1.954204300     1.954062185     1.954091130     1.954161784     1.954195056     1.954202786     1.954204094     1.954204285     1.954204311     1.954204314    
      1.954204310     1.954204304     1.954204297     1.954204292     1.954204288     1.954204286     1.954204283     1.954204281     1.954204281     1.954204283    
      1.954204286     1.954204290     1.954204294     1.954204300     1.954204303    

 CONCENTRATION WILL BE SAVED ON UNIT 6669 AT END OF TIME STEP    2, STRESS PERIOD    1


  MASS BUDGET FOR ENTIRE MODEL AT END OF TIME STEP    2, STRESS PERIOD   1
  ---------------------------------------------------------------------------------------------------

     CUMULATIVE MASS      M       RATES FOR THIS TIME STEP      M/T          PACKAGE NAME    
     ------------------                 ------------------------                     ----------------

           IN:                                      IN:
           ---                                      ---
     STORAGE-AQUEOUS =           0.8587       STORAGE-AQUEOUS =       3.8725E-02     MST                              
                 CHD =           1.2077                   CHD =       6.0383E-02     SSM_CHD                          
                 CNC =           6.0761                   CNC =           0.3080     CNC                              

            TOTAL IN =           8.1425              TOTAL IN =           0.4071

          OUT:                                     OUT:
          ----                                     ----
     STORAGE-AQUEOUS =       1.2745E-06       STORAGE-AQUEOUS =       3.9896E-08     MST                              
                 CHD =           8.1425                   CHD =           0.4071     SSM_CHD                          
                 CNC =           0.0000                   CNC =           0.0000     CNC                              

           TOTAL OUT =           8.1425             TOTAL OUT =           0.4071

            IN - OUT =      -3.5810E-09              IN - OUT =      -2.4606E-10

 PERCENT DISCREPANCY =          -0.00     PERCENT DISCREPANCY =          -0.00




         TIME SUMMARY AT END OF TIME STEP    2 IN STRESS PERIOD    1
                    SECONDS     MINUTES      HOURS       DAYS        YEARS
                    -----------------------------------------------------------
   TIME STEP LENGTH 8.64000E+05  14400.      240.00      10.000     2.73785E-02
 STRESS PERIOD TIME 1.72800E+06  28800.      480.00      20.000     5.47570E-02
         TOTAL TIME 1.72800E+06  28800.      480.00      20.000     5.47570E-02


end timestep


start timestep kper="1" kstp="3" mode="normal"

 UBDSV06 SAVING  SOURCE-SINK MIX IN MODEL MG               PACKAGE MG              CONNECTED TO MODEL MG               PACKAGE SSM              ON UNIT   6668 AT TIME STEP      3, STRESS PERIOD      1
 UBDSV06 SAVING              CNC IN MODEL MG               PACKAGE MG              CONNECTED TO MODEL MG               PACKAGE CNC              ON UNIT   6668 AT TIME STEP      3, STRESS PERIOD      1

 SSM PACKAGE (SSM) FLOW RATES   PERIOD      1   STEP        3
 ------------------------------------------------------------------------------------------------
   NUMBER   CELLID                   BOUND Q        SSM CONC          RATE         PACKAGE NAME  
 ------------------------------------------------------------------------------------------------
     1      (1,1,1)               2.08333325E-02  0.96613468      2.01278051E-02       CHD       
     2      (2,1,1)               2.08333325E-02  0.96613468      2.01278051E-02       CHD       
     3      (3,1,1)               2.08333325E-02  0.96613468      2.01278051E-02       CHD       
     4      (4,1,1)               0.0000000       0.0000000       0.0000000            CHD       
     5      (5,1,1)               0.0000000       0.0000000       0.0000000            CHD       
     6      (6,1,1)               0.0000000       0.0000000       0.0000000            CHD       
     7      (7,1,1)               0.0000000       0.0000000       0.0000000            CHD       
     8      (8,1,1)               0.0000000       0.0000000       0.0000000            CHD       
     9      (9,1,1)               0.0000000       0.0000000       0.0000000            CHD       
     10     (10,1,1)              0.0000000       0.0000000       0.0000000            CHD       
     11     (1,1,25)             -2.08333362E-02  1.9542043      -4.07125953E-02       CHD       
     12     (2,1,25)             -2.08333362E-02  1.9542043      -4.07125953E-02       CHD       
     13     (3,1,25)             -2.08333362E-02  1.9542043      -4.07125953E-02       CHD       
     14     (4,1,25)             -2.08333362E-02  1.9542043      -4.07125953E-02       CHD       
     15     (5,1,25)             -2.08333362E-02  1.9542043      -4.07125953E-02       CHD       
     16     (6,1,25)             -2.08333362E-02  1.9542043      -4.07125953E-02       CHD       
     17     (7,1,25)             -2.08333362E-02  1.9542043      -4.07125953E-02       CHD       
     18     (8,1,25)             -2.08333362E-02  1.9542043      -4.07125953E-02       CHD       
     19     (9,1,25)             -2.08333362E-02  1.9542043      -4.07125953E-02       CHD       
     20     (10,1,25)            -2.08333362E-02  1.9542043      -4.07125953E-02       CHD       
 ------------------------------------------------------------------------------------------------




 CNC PACKAGE (CNC) FLOW RATES   PERIOD      1   STEP        3
 -----------------------------------------------
   NUMBER   CELLID                    RATE      
 -----------------------------------------------
     1      (4,1,1)               6.89014545E-02
     2      (5,1,1)               4.08522964E-02
     3      (6,1,1)               4.07805633E-02
     4      (7,1,1)               4.07454127E-02
     5      (8,1,1)               4.07285096E-02
     6      (9,1,1)               4.07207090E-02
     7      (10,1,1)              4.07176700E-02
 -----------------------------------------------



1
  CONCENTRATION IN LAYER   1 AT END OF TIME STEP   3 IN STRESS PERIOD    1
  ---------------------------------------------------------------------------

                1               2               3               4               5               6               7               8               9              10
               11              12              13              14              15              16              17              18              19              20
               21              22              23              24              25
 ................................................................................................................................................................
   1  1.719181350     1.883210034     1.942029828     1.952455402     1.953971087     1.954174624     1.954200658     1.954203875     1.954204261     1.954204306    
      1.954204308     1.954204304     1.954204297     1.954204292     1.954204288     1.954204286     1.954204284     1.954204283     1.954204283     1.954204284    
      1.954204287     1.954204291     1.954204295     1.954204300     1.954204303    
1
  CONCENTRATION IN LAYER   2 AT END OF TIME STEP   3 IN STRESS PERIOD    1
  ---------------------------------------------------------------------------

                1               2               3               4               5               6               7               8               9              10
               11              12              13              14              15              16              17              18              19              20
               21              22              23              24              25
 ................................................................................................................................................................
   1  1.749404776     1.892671687     1.943252708     1.952580199     1.953983962     1.954175991     1.954200806     1.954203892     1.954204264     1.954204306    
      1.954204307     1.954204303     1.954204296     1.954204289     1.954204284     1.954204281     1.954204279     1.954204278     1.954204279     1.954204280    
      1.954204283     1.954204288     1.954204293     1.954204300     1.954204303    
1
  CONCENTRATION IN LAYER   3 AT END OF TIME STEP   3 IN STRESS PERIOD    1
  ---------------------------------------------------------------------------

                1               2               3               4               5               6               7               8               9              10
               11              12              13              14              15              16              17              18              19              20
               21              22              23              24              25
 ................................................................................................................................................................
   1  1.820259836     1.910581005     1.945325844     1.952794493     1.954007081     1.954178510     1.954201080     1.954203924     1.954204269     1.954204306    
      1.954204306     1.954204301     1.954204293     1.954204285     1.954204279     1.954204275     1.954204272     1.954204271     1.954204272     1.954204274    
      1.954204278     1.954204284     1.954204290     1.954204299     1.954204303    
1
  CONCENTRATION IN LAYER   4 AT END OF TIME STEP   3 IN STRESS PERIOD    1
  ---------------------------------------------------------------------------

                1               2               3               4               5               6               7               8               9              10
               11              12              13              14              15              16              17              18              19              20
               21              22              23              24              25
 ................................................................................................................................................................
   1  1.954204300     1.932410687     1.947530391     1.953046971     1.954036548     1.954181819     1.954201445     1.954203966     1.954204274     1.954204307    
      1.954204306     1.954204300     1.954204291     1.954204281     1.954204274     1.954204269     1.954204266     1.954204265     1.954204266     1.954204268    
      1.954204273     1.954204280     1.954204288     1.954204298     1.954204303    
1
  CONCENTRATION IN LAYER   5 AT END OF TIME STEP   3 IN STRESS PERIOD    1
  ---------------------------------------------------------------------------

                1               2               3               4               5               6               7               8               9              10
               11              12              13              14              15              16              17              18              19              20
               21              22              23              24              25
 ................................................................................................................................................................
   1  1.954204300     1.943474694     1.949847626     1.953325087     1.954068777     1.954185494     1.954201854     1.954204012     1.954204280     1.954204308    
      1.954204306     1.954204300     1.954204290     1.954204279     1.954204271     1.954204265     1.954204262     1.954204261     1.954204262     1.954204265    
      1.954204270     1.954204277     1.954204286     1.954204297     1.954204302    
1
  CONCENTRATION IN LAYER   6 AT END OF TIME STEP   3 IN STRESS PERIOD    1
  ---------------------------------------------------------------------------

                1               2               3               4               5               6               7               8               9              10
               11              12              13              14              15              16              17              18              19              20
               21              22              23              24              25
 ................................................................................................................................................................
   1  1.954204300     1.948983798     1.951579578     1.953580690     1.954099942     1.954189124     1.954202263     1.954204058     1.954204285     1.954204309    
      1.954204306     1.954204300     1.954204290     1.954204279     1.954204270     1.954204264     1.954204261     1.954204260     1.954204260     1.954204263    
      1.954204269     1.954204276     1.954204285     1.954204296     1.954204302    
1
  CONCENTRATION IN LAYER   7 AT END OF TIME STEP   3 IN STRESS PERIOD    1
  ---------------------------------------------------------------------------

                1               2               3               4               5               6               7               8               9              10
               11              12              13              14              15              16              17              18              19              20
               21              22              23              24              25
 ................................................................................................................................................................
   1  1.954204300     1.951683368     1.952699419     1.953784113     1.954126831     1.954192356     1.954202633     1.954204098     1.954204289     1.954204310    
      1.954204307     1.954204300     1.954204290     1.954204280     1.954204271     1.954204265     1.954204262     1.954204261     1.954204261     1.954204264    
      1.954204269     1.954204277     1.954204285     1.954204296     1.954204302    
1
  CONCENTRATION IN LAYER   8 AT END OF TIME STEP   3 IN STRESS PERIOD    1
  ---------------------------------------------------------------------------

                1               2               3               4               5               6               7               8               9              10
               11              12              13              14              15              16              17              18              19              20
               21              22              23              24              25
 ................................................................................................................................................................
   1  1.954204300     1.952981520     1.953359641     1.953927850     1.954147529     1.954194935     1.954202933     1.954204130     1.954204292     1.954204310    
      1.954204307     1.954204301     1.954204291     1.954204281     1.954204273     1.954204268     1.954204265     1.954204264     1.954204264     1.954204267    
      1.954204271     1.954204278     1.954204286     1.954204296     1.954204302    
1
  CONCENTRATION IN LAYER   9 AT END OF TIME STEP   3 IN STRESS PERIOD    1
  ---------------------------------------------------------------------------

                1               2               3               4               5               6               7               8               9              10
               11              12              13              14              15              16              17              18              19              20
               21              22              23              24              25
 ................................................................................................................................................................
   1  1.954204300     1.953580607     1.953713383     1.954016719     1.954161306     1.954196707     1.954203141     1.954204150     1.954204293     1.954204311    
      1.954204308     1.954204302     1.954204293     1.954204284     1.954204277     1.954204273     1.954204270     1.954204268     1.954204269     1.954204271    
      1.954204275     1.954204281     1.954204288     1.954204297     1.954204302    
1
  CONCENTRATION IN LAYER  10 AT END OF TIME STEP   3 IN STRESS PERIOD    1
  ---------------------------------------------------------------------------

                1               2               3               4               5               6               7               8               9              10
               11              12              13              14              15              16              17              18              19              20
               21              22              23              24              25
 ................................................................................................................................................................
   1  1.954204300     1.953814001     1.953865059     1.954058546     1.954168118     1.954197602     1.954203246     1.954204160     1.954204294     1.954204311    
      1.954204309     1.954204303     1.954204295     1.954204287     1.954204282     1.954204278     1.954204275     1.954204274     1.954204274     1.954204275    
      1.954204279     1.954204284     1.954204290     1.954204298     1.954204302    

 CONCENTRATION WILL BE SAVED ON UNIT 6669 AT END OF TIME STEP    3, STRESS PERIOD    1


  MASS BUDGET FOR ENTIRE MODEL AT END OF TIME STEP    3, STRESS PERIOD   1
  ---------------------------------------------------------------------------------------------------

     CUMULATIVE MASS      M       RATES FOR THIS TIME STEP      M/T          PACKAGE NAME    
     ------------------                 ------------------------                     ----------------

           IN:                                      IN:
           ---                                      ---
     STORAGE-AQUEOUS =           1.1917       STORAGE-AQUEOUS =       3.3296E-02     MST                              
                 CHD =           1.8115                   CHD =       6.0383E-02     SSM_CHD                          
                 CNC =           9.2106                   CNC =           0.3134     CNC                              

            TOTAL IN =          12.2138              TOTAL IN =           0.4071

          OUT:                                     OUT:
          ----                                     ----
     STORAGE-AQUEOUS =       1.3528E-06       STORAGE-AQUEOUS =       7.8367E-09     MST                              
                 CHD =          12.2138                   CHD =           0.4071     SSM_CHD                          
                 CNC =           0.0000                   CNC =           0.0000     CNC                              

           TOTAL OUT =          12.2138             TOTAL OUT =           0.4071

            IN - OUT =      -5.2390E-09              IN - OUT =      -1.6580E-10

 PERCENT DISCREPANCY =          -0.00     PERCENT DISCREPANCY =          -0.00




         TIME SUMMARY AT END OF TIME STEP    3 IN STRESS PERIOD    1
                    SECONDS     MINUTES      HOURS       DAYS        YEARS
                    -----------------------------------------------------------
   TIME STEP LENGTH 8.64000E+05  14400.      240.00      10.000     2.73785E-02
 STRESS PERIOD TIME 2.59200E+06  43200.      720.00      30.000     8.21355E-02
         TOTAL TIME 2.59200E+06  43200.      720.00      30.000     8.21355E-02


end timestep


start timestep kper="1" kstp="4" mode="normal"

 UBDSV06 SAVING  SOURCE-SINK MIX IN MODEL MG               PACKAGE MG              CONNECTED TO MODEL MG               PACKAGE SSM              ON UNIT   6668 AT TIME STEP      4, STRESS PERIOD      1
 UBDSV06 SAVING              CNC IN MODEL MG               PACKAGE MG              CONNECTED TO MODEL MG               PACKAGE CNC              ON UNIT   6668 AT TIME STEP      4, STRESS PERIOD      1

 SSM PACKAGE (SSM) FLOW RATES   PERIOD      1   STEP        4
 ------------------------------------------------------------------------------------------------
   NUMBER   CELLID                   BOUND Q        SSM CONC          RATE         PACKAGE NAME  
 ------------------------------------------------------------------------------------------------
     1      (1,1,1)               2.08333321E-02  0.96613468      2.01278047E-02       CHD       
     2      (2,1,1)               2.08333321E-02  0.96613468      2.01278047E-02       CHD       
     3      (3,1,1)               2.08333321E-02  0.96613468      2.01278047E-02       CHD       
     4      (4,1,1)               0.0000000       0.0000000       0.0000000            CHD       
     5      (5,1,1)               0.0000000       0.0000000       0.0000000            CHD       
     6      (6,1,1)               0.0000000       0.0000000       0.0000000            CHD       
     7      (7,1,1)               0.0000000       0.0000000       0.0000000            CHD       
     8      (8,1,1)               0.0000000       0.0000000       0.0000000            CHD       
     9      (9,1,1)               0.0000000       0.0000000       0.0000000            CHD       
     10     (10,1,1)              0.0000000       0.0000000       0.0000000            CHD       
     11     (1,1,25)             -2.08333356E-02  1.9542043      -4.07125941E-02       CHD       
     12     (2,1,25)             -2.08333356E-02  1.9542043      -4.07125941E-02       CHD       
     13     (3,1,25)             -2.08333356E-02  1.9542043      -4.07125941E-02       CHD       
     14     (4,1,25)             -2.08333356E-02  1.9542043      -4.07125941E-02       CHD       
     15     (5,1,25)             -2.08333356E-02  1.9542043      -4.07125941E-02       CHD       
     16     (6,1,25)             -2.08333356E-02  1.9542043      -4.07125941E-02       CHD       
     17     (7,1,25)             -2.08333356E-02  1.9542043      -4.07125941E-02       CHD       
     18     (8,1,25)             -2.08333356E-02  1.9542043      -4.07125941E-02       CHD       
     19     (9,1,25)             -2.08333356E-02  1.9542043      -4.07125941E-02       CHD       
     20     (10,1,25)            -2.08333356E-02  1.9542043      -4.07125941E-02       CHD       
 ------------------------------------------------------------------------------------------------




 CNC PACKAGE (CNC) FLOW RATES   PERIOD      1   STEP        4
 -----------------------------------------------
   NUMBER   CELLID                    RATE      
 -----------------------------------------------
     1      (4,1,1)               7.24549668E-02
     2      (5,1,1)               4.09267363E-02
     3      (6,1,1)               4.08232090E-02
     4      (7,1,1)               4.07692936E-02
     5      (8,1,1)               4.07418228E-02
     6      (9,1,1)               4.07284835E-02
     7      (10,1,1)              4.07230918E-02
 -----------------------------------------------



1
  CONCENTRATION IN LAYER   1 AT END OF TIME STEP   4 IN STRESS PERIOD    1
  ---------------------------------------------------------------------------

                1               2               3               4               5               6               7               8               9              10
               11              12              13              14              15              16              17              18              19              20
               21              22              23              24              25
 ................................................................................................................................................................
   1  1.683569438     1.858812868     1.934043666     1.950700405     1.953654704     1.954123909     1.954193129     1.954202816     1.954204119     1.954204288    
      1.954204304     1.954204302     1.954204296     1.954204289     1.954204284     1.954204281     1.954204278     1.954204277     1.954204277     1.954204279    
      1.954204282     1.954204287     1.954204292     1.954204298     1.954204302    
1
  CONCENTRATION IN LAYER   2 AT END OF TIME STEP   4 IN STRESS PERIOD    1
  ---------------------------------------------------------------------------

                1               2               3               4               5               6               7               8               9              10
               11              12              13              14              15              16              17              18              19              20
               21              22              23              24              25
 ................................................................................................................................................................
   1  1.720428994     1.871456583     1.935961141     1.950930400     1.953682362     1.954127279     1.954193535     1.954202866     1.954204126     1.954204288    
      1.954204303     1.954204300     1.954204294     1.954204287     1.954204281     1.954204277     1.954204274     1.954204273     1.954204274     1.954204276    
      1.954204279     1.954204284     1.954204290     1.954204298     1.954204302    
1
  CONCENTRATION IN LAYER   3 AT END OF TIME STEP   4 IN STRESS PERIOD    1
  ---------------------------------------------------------------------------

                1               2               3               4               5               6               7               8               9              10
               11              12              13              14              15              16              17              18              19              20
               21              22              23              24              25
 ................................................................................................................................................................
   1  1.803807025     1.894874147     1.939220093     1.951329789     1.953732527     1.954133534     1.954194296     1.954202958     1.954204138     1.954204289    
      1.954204302     1.954204298     1.954204290     1.954204283     1.954204276     1.954204271     1.954204268     1.954204267     1.954204268     1.954204270    
      1.954204275     1.954204281     1.954204288     1.954204297     1.954204302    
1
  CONCENTRATION IN LAYER   4 AT END OF TIME STEP   4 IN STRESS PERIOD    1
  ---------------------------------------------------------------------------

                1               2               3               4               5               6               7               8               9              10
               11              12              13              14              15              16              17              18              19              20
               21              22              23              24              25
 ................................................................................................................................................................
   1  1.954204300     1.922745813     1.942794207     1.951811884     1.953797413     1.954141837     1.954195317     1.954203082     1.954204153     1.954204291    
      1.954204300     1.954204296     1.954204288     1.954204279     1.954204272     1.954204266     1.954204262     1.954204261     1.954204262     1.954204265    
      1.954204270     1.954204277     1.954204285     1.954204296     1.954204302    
1
  CONCENTRATION IN LAYER   5 AT END OF TIME STEP   4 IN STRESS PERIOD    1
  ---------------------------------------------------------------------------

                1               2               3               4               5               6               7               8               9              10
               11              12              13              14              15              16              17              18              19              20
               21              22              23              24              25
 ................................................................................................................................................................
   1  1.954204300     1.937757653     1.946501847     1.952346037     1.953869331     1.954151168     1.954196479     1.954203223     1.954204171     1.954204293    
      1.954204300     1.954204295     1.954204286     1.954204277     1.954204269     1.954204263     1.954204258     1.954204257     1.954204258     1.954204261    
      1.954204267     1.954204275     1.954204284     1.954204295     1.954204302    
1
  CONCENTRATION IN LAYER   6 AT END OF TIME STEP   4 IN STRESS PERIOD    1
  ---------------------------------------------------------------------------

                1               2               3               4               5               6               7               8               9              10
               11              12              13              14              15              16              17              18              19              20
               21              22              23              24              25
 ................................................................................................................................................................
   1  1.954204300     1.945708547     1.949367088     1.952847292     1.953940090     1.954160513     1.954197657     1.954203366     1.954204188     1.954204295    
      1.954204300     1.954204295     1.954204286     1.954204277     1.954204268     1.954204261     1.954204257     1.954204255     1.954204257     1.954204260    
      1.954204266     1.954204274     1.954204283     1.954204294     1.954204301    
1
  CONCENTRATION IN LAYER   7 AT END OF TIME STEP   4 IN STRESS PERIOD    1
  ---------------------------------------------------------------------------

                1               2               3               4               5               6               7               8               9              10
               11              12              13              14              15              16              17              18              19              20
               21              22              23              24              25
 ................................................................................................................................................................
   1  1.954204300     1.949849252     1.951300892     1.953257742     1.954002413     1.954168959     1.954198736     1.954203498     1.954204203     1.954204297    
      1.954204301     1.954204296     1.954204287     1.954204278     1.954204269     1.954204262     1.954204258     1.954204256     1.954204257     1.954204261    
      1.954204266     1.954204274     1.954204283     1.954204294     1.954204301    
1
  CONCENTRATION IN LAYER   8 AT END OF TIME STEP   4 IN STRESS PERIOD    1
  ---------------------------------------------------------------------------

                1               2               3               4               5               6               7               8               9              10
               11              12              13              14              15              16              17              18              19              20
               21              22              23              24              25
 ................................................................................................................................................................
   1  1.954204300     1.951959006     1.952491817     1.953556515     1.954051404     1.954175797     1.954199622     1.954203606     1.954204216     1.954204299    
      1.954204302     1.954204297     1.954204288     1.954204279     1.954204271     1.954204265     1.954204261     1.954204259     1.954204260     1.954204263    
      1.954204268     1.954204275     1.954204283     1.954204294     1.954204301    
1
  CONCENTRATION IN LAYER   9 AT END OF TIME STEP   4 IN STRESS PERIOD    1
  ---------------------------------------------------------------------------

                1               2               3               4               5               6               7               8               9              10
               11              12              13              14              15              16              17              18              19              20
               21              22              23              24              25
 ................................................................................................................................................................
   1  1.954204300     1.952983471     1.953155112     1.953746105     1.954084602     1.954180558     1.954200246     1.954203681     1.954204224     1.954204300    
      1.954204304     1.954204298     1.954204290     1.954204282     1.954204274     1.954204268     1.954204265     1.954204263     1.954204263     1.954204266    
      1.954204271     1.954204277     1.954204285     1.954204295     1.954204301    
1
  CONCENTRATION IN LAYER  10 AT END OF TIME STEP   4 IN STRESS PERIOD    1
  ---------------------------------------------------------------------------

                1               2               3               4               5               6               7               8               9              10
               11              12              13              14              15              16              17              18              19              20
               21              22              23              24              25
 ................................................................................................................................................................
   1  1.954204300     1.953397548     1.953447503     1.953836941     1.954101220     1.954182988     1.954200567     1.954203720     1.954204227     1.954204301    
      1.954204305     1.954204301     1.954204293     1.954204284     1.954204278     1.954204273     1.954204269     1.954204267     1.954204268     1.954204270    
      1.954204274     1.954204280     1.954204286     1.954204295     1.954204301    

 CONCENTRATION WILL BE SAVED ON UNIT 6669 AT END OF TIME STEP    4, STRESS PERIOD    1


  MASS BUDGET FOR ENTIRE MODEL AT END OF TIME STEP    4, STRESS PERIOD   1
  ---------------------------------------------------------------------------------------------------

     CUMULATIVE MASS      M       RATES FOR THIS TIME STEP      M/T          PACKAGE NAME    
     ------------------                 ------------------------                     ----------------

           IN:                                      IN:
           ---                                      ---
     STORAGE-AQUEOUS =           1.4874       STORAGE-AQUEOUS =       2.9575E-02     MST                              
                 CHD =           2.4153                   CHD =       6.0383E-02     SSM_CHD                          
                 CNC =          12.3823                   CNC =           0.3172     CNC                              

            TOTAL IN =          16.2850              TOTAL IN =           0.4071

          OUT:                                     OUT:
          ----                                     ----
     STORAGE-AQUEOUS =       1.3528E-06       STORAGE-AQUEOUS =           0.0000     MST                              
                 CHD =          16.2850                   CHD =           0.4071     SSM_CHD                          
                 CNC =           0.0000                   CNC =           0.0000     CNC                              

           TOTAL OUT =          16.2850             TOTAL OUT =           0.4071

            IN - OUT =      -8.1996E-09              IN - OUT =      -2.9606E-10

 PERCENT DISCREPANCY =          -0.00     PERCENT DISCREPANCY =          -0.00




         TIME SUMMARY AT END OF TIME STEP    4 IN STRESS PERIOD    1
                    SECONDS     MINUTES      HOURS       DAYS        YEARS
                    -----------------------------------------------------------
   TIME STEP LENGTH 8.64000E+05  14400.      240.00      10.000     2.73785E-02
 STRESS PERIOD TIME 3.45600E+06  57600.      960.00      40.000     0.10951    
         TOTAL TIME 3.45600E+06  57600.      960.00      40.000     0.10951    


end timestep


start timestep kper="1" kstp="5" mode="normal"

 UBDSV06 SAVING  SOURCE-SINK MIX IN MODEL MG               PACKAGE MG              CONNECTED TO MODEL MG               PACKAGE SSM              ON UNIT   6668 AT TIME STEP      5, STRESS PERIOD      1
 UBDSV06 SAVING              CNC IN MODEL MG               PACKAGE MG              CONNECTED TO MODEL MG               PACKAGE CNC              ON UNIT   6668 AT TIME STEP      5, STRESS PERIOD      1

 SSM PACKAGE (SSM) FLOW RATES   PERIOD      1   STEP        5
 ------------------------------------------------------------------------------------------------
   NUMBER   CELLID                   BOUND Q        SSM CONC          RATE         PACKAGE NAME  
 ------------------------------------------------------------------------------------------------
     1      (1,1,1)               2.08333321E-02  0.96613468      2.01278046E-02       CHD       
     2      (2,1,1)               2.08333321E-02  0.96613468      2.01278046E-02       CHD       
     3      (3,1,1)               2.08333321E-02  0.96613468      2.01278046E-02       CHD       
     4      (4,1,1)               0.0000000       0.0000000       0.0000000            CHD       
     5      (5,1,1)               0.0000000       0.0000000       0.0000000            CHD       
     6      (6,1,1)               0.0000000       0.0000000       0.0000000            CHD       
     7      (7,1,1)               0.0000000       0.0000000       0.0000000            CHD       
     8      (8,1,1)               0.0000000       0.0000000       0.0000000            CHD       
     9      (9,1,1)               0.0000000       0.0000000       0.0000000            CHD       
     10     (10,1,1)              0.0000000       0.0000000       0.0000000            CHD       
     11     (1,1,25)             -2.08333353E-02  1.9542043      -4.07125935E-02       CHD       
[...]
               21              22              23              24              25
 ................................................................................................................................................................
   1  1.954204300     1.936927595     1.911875367     1.892539818     1.881124063     1.875081668     1.872009612     1.870468362     1.869699637     1.869320859    
      1.869144104     1.869089488     1.869106588     1.869178421     1.869322249     1.869557302     1.869913008     1.870428917     1.871153394     1.872141529    
      1.873451772     1.875139363     1.877241295     1.879732820     1.882375980    

 CONCENTRATION WILL BE SAVED ON UNIT 6669 AT END OF TIME STEP  199, STRESS PERIOD    1


  MASS BUDGET FOR ENTIRE MODEL AT END OF TIME STEP  199, STRESS PERIOD   1
  ---------------------------------------------------------------------------------------------------

     CUMULATIVE MASS      M       RATES FOR THIS TIME STEP      M/T          PACKAGE NAME    
     ------------------                 ------------------------                     ----------------

           IN:                                      IN:
           ---                                      ---
     STORAGE-AQUEOUS =          29.1399       STORAGE-AQUEOUS =       2.8029E-03     MST                              
                 CHD =         120.1630                   CHD =       6.0383E-02     SSM_CHD                          
                 CNC =         653.3550                   CNC =           0.3290     CNC                              

            TOTAL IN =         802.6579              TOTAL IN =           0.3922

          OUT:                                     OUT:
          ----                                     ----
     STORAGE-AQUEOUS =       1.3528E-06       STORAGE-AQUEOUS =           0.0000     MST                              
                 CHD =         802.6579                   CHD =           0.3922     SSM_CHD                          
                 CNC =           0.0000                   CNC =           0.0000     CNC                              

           TOTAL OUT =         802.6579             TOTAL OUT =           0.3922

            IN - OUT =       5.1291E-08              IN - OUT =       8.7820E-09

 PERCENT DISCREPANCY =           0.00     PERCENT DISCREPANCY =           0.00




         TIME SUMMARY AT END OF TIME STEP  199 IN STRESS PERIOD    1
                    SECONDS     MINUTES      HOURS       DAYS        YEARS
                    -----------------------------------------------------------
   TIME STEP LENGTH 8.64000E+05  14400.      240.00      10.000     2.73785E-02
 STRESS PERIOD TIME 1.71936E+08 2.86560E+06  47760.      1990.0      5.4483    
         TOTAL TIME 1.71936E+08 2.86560E+06  47760.      1990.0      5.4483    


end timestep


start timestep kper="1" kstp="200" mode="normal"

 UBDSV06 SAVING  SOURCE-SINK MIX IN MODEL MG               PACKAGE MG              CONNECTED TO MODEL MG               PACKAGE SSM              ON UNIT   6668 AT TIME STEP    200, STRESS PERIOD      1
 UBDSV06 SAVING              CNC IN MODEL MG               PACKAGE MG              CONNECTED TO MODEL MG               PACKAGE CNC              ON UNIT   6668 AT TIME STEP    200, STRESS PERIOD      1

 SSM PACKAGE (SSM) FLOW RATES   PERIOD      1   STEP      200
 ------------------------------------------------------------------------------------------------
   NUMBER   CELLID                   BOUND Q        SSM CONC          RATE         PACKAGE NAME  
 ------------------------------------------------------------------------------------------------
     1      (1,1,1)               2.08333330E-02  0.96613468      2.01278055E-02       CHD       
     2      (2,1,1)               2.08333330E-02  0.96613468      2.01278055E-02       CHD       
     3      (3,1,1)               2.08333330E-02  0.96613468      2.01278055E-02       CHD       
     4      (4,1,1)               0.0000000       0.0000000       0.0000000            CHD       
     5      (5,1,1)               0.0000000       0.0000000       0.0000000            CHD       
     6      (6,1,1)               0.0000000       0.0000000       0.0000000            CHD       
     7      (7,1,1)               0.0000000       0.0000000       0.0000000            CHD       
     8      (8,1,1)               0.0000000       0.0000000       0.0000000            CHD       
     9      (9,1,1)               0.0000000       0.0000000       0.0000000            CHD       
     10     (10,1,1)              0.0000000       0.0000000       0.0000000            CHD       
     11     (1,1,25)             -2.08333337E-02  1.8819393      -3.92070684E-02       CHD       
     12     (2,1,25)             -2.08333337E-02  1.8819393      -3.92070685E-02       CHD       
     13     (3,1,25)             -2.08333337E-02  1.8819393      -3.92070685E-02       CHD       
     14     (4,1,25)             -2.08333337E-02  1.8819393      -3.92070686E-02       CHD       
     15     (5,1,25)             -2.08333337E-02  1.8819393      -3.92070687E-02       CHD       
     16     (6,1,25)             -2.08333337E-02  1.8819393      -3.92070688E-02       CHD       
     17     (7,1,25)             -2.08333337E-02  1.8819393      -3.92070689E-02       CHD       
     18     (8,1,25)             -2.08333337E-02  1.8819393      -3.92070690E-02       CHD       
     19     (9,1,25)             -2.08333337E-02  1.8819393      -3.92070692E-02       CHD       
     20     (10,1,25)            -2.08333337E-02  1.8819393      -3.92070694E-02       CHD       
 ------------------------------------------------------------------------------------------------




 CNC PACKAGE (CNC) FLOW RATES   PERIOD      1   STEP      200
 -----------------------------------------------
   NUMBER   CELLID                    RATE      
 -----------------------------------------------
     1      (4,1,1)               8.19778267E-02
     2      (5,1,1)               4.15984596E-02
     3      (6,1,1)               4.13206719E-02
     4      (7,1,1)               4.11424479E-02
     5      (8,1,1)               4.10313845E-02
     6      (9,1,1)               4.09670280E-02
     7      (10,1,1)              4.09375460E-02
 -----------------------------------------------



1
  CONCENTRATION IN LAYER   1 AT END OF TIME STEP 200 IN STRESS PERIOD    1
  ---------------------------------------------------------------------------

                1               2               3               4               5               6               7               8               9              10
               11              12              13              14              15              16              17              18              19              20
               21              22              23              24              25
 ................................................................................................................................................................
   1  1.593899993     1.738210181     1.813620523     1.843399196     1.856481548     1.862741011     1.865835578     1.867380449     1.868155216     1.868548353    
      1.868758133     1.868888784     1.868996612     1.869117106     1.869279986     1.869516375     1.869862006     1.870358874     1.871055832     1.872007661    
      1.873272389     1.874905187     1.876943753     1.879365568     1.881939253    
1
  CONCENTRATION IN LAYER   2 AT END OF TIME STEP 200 IN STRESS PERIOD    1
  ---------------------------------------------------------------------------

                1               2               3               4               5               6               7               8               9              10
               11              12              13              14              15              16              17              18              19              20
               21              22              23              24              25
 ................................................................................................................................................................
   1  1.647657138     1.761900313     1.821195505     1.846194665     1.857730658     1.863348454     1.866137817     1.867531521     1.868230772     1.868586128    
      1.868777058     1.868898393     1.869001476     1.869119493     1.869281107     1.869516883     1.869862231     1.870358974     1.871055877     1.872007681    
      1.873272398     1.874905191     1.876943753     1.879365572     1.881939257    
1
  CONCENTRATION IN LAYER   3 AT END OF TIME STEP 200 IN STRESS PERIOD    1
  ---------------------------------------------------------------------------

                1               2               3               4               5               6               7               8               9              10
               11              12              13              14              15              16              17              18              19              20
               21              22              23              24              25
 ................................................................................................................................................................
   1  1.762426330     1.804352513     1.834698524     1.851362330     1.860091699     1.864503029     1.866712727     1.867818895     1.868374493     1.868657978    
      1.868813051     1.868916689     1.869010733     1.869124028     1.869283235     1.869517846     1.869862659     1.870359163     1.871055961     1.872007719    
      1.873272415     1.874905198     1.876943756     1.879365575     1.881939261    
1
  CONCENTRATION IN LAYER   4 AT END OF TIME STEP 200 IN STRESS PERIOD    1
  ---------------------------------------------------------------------------

                1               2               3               4               5               6               7               8               9              10
               11              12              13              14              15              16              17              18              19              20
               21              22              23              24              25
 ................................................................................................................................................................
   1  1.954204300     1.853481510     1.851406553     1.858189435     1.863315745     1.866090503     1.867504031     1.868214464     1.868572316     1.868756864    
      1.868862575     1.868941911     1.869023487     1.869130264     1.869286155     1.869519167     1.869863247     1.870359424     1.871056078     1.872007772    
      1.873272439     1.874905209     1.876943761     1.879365577     1.881939265    
1
  CONCENTRATION IN LAYER   5 AT END OF TIME STEP 200 IN STRESS PERIOD    1
  ---------------------------------------------------------------------------

                1               2               3               4               5               6               7               8               9              10
               11              12              13              14              15              16              17              18              19              20
               21              22              23              24              25
 ................................................................................................................................................................
   1  1.954204300     1.886169430     1.867556779     1.866090332     1.867087450     1.867954134     1.868434226     1.868679530     1.868804883     1.868873088    
      1.868920741     1.868971641     1.869038513     1.869137588     1.869289573     1.869520713     1.869863936     1.870359731     1.871056216     1.872007834    
      1.873272467     1.874905222     1.876943766     1.879365580     1.881939269    
1
  CONCENTRATION IN LAYER   6 AT END OF TIME STEP 200 IN STRESS PERIOD    1
  ---------------------------------------------------------------------------

                1               2               3               4               5               6               7               8               9              10
               11              12              13              14              15              16              17              18              19              20
               21              22              23              24              25
 ................................................................................................................................................................
   1  1.954204300     1.907503526     1.882099616     1.873826544     1.871013380     1.869913108     1.869412406     1.869168583     1.869049427     1.868995225    
      1.868981729     1.869003085     1.869054404     1.869145296     1.869293150     1.869522329     1.869864657     1.870360053     1.871056360     1.872007900    
      1.873272497     1.874905236     1.876943772     1.879365582     1.881939273    
1
  CONCENTRATION IN LAYER   7 AT END OF TIME STEP 200 IN STRESS PERIOD    1
  ---------------------------------------------------------------------------

                1               2               3               4               5               6               7               8               9              10
               11              12              13              14              15              16              17              18              19              20
               21              22              23              24              25
 ................................................................................................................................................................
   1  1.954204300     1.921191129     1.894052674     1.880808342     1.874681773     1.871769251     1.870342436     1.869633756     1.869282031     1.869111476    
      1.869038869     1.869033440     1.869069820     1.869152675     1.869296536     1.869523854     1.869865340     1.870360359     1.871056498     1.872007962    
      1.873272526     1.874905249     1.876943778     1.879365585     1.881939278    
1
  CONCENTRATION IN LAYER   8 AT END OF TIME STEP 200 IN STRESS PERIOD    1
  ---------------------------------------------------------------------------

                1               2               3               4               5               6               7               8               9              10
               11              12              13              14              15              16              17              18              19              20
               21              22              23              24              25
 ................................................................................................................................................................
   1  1.954204300     1.929720799     1.903022891     1.886492017     1.877758107     1.873342911     1.871133278     1.870029495     1.869479912     1.869210384    
      1.869087829     1.869058112     1.869083621     1.869159073     1.869299404     1.869525140     1.869865918     1.870360619     1.871056616     1.872008016    
      1.873272550     1.874905260     1.876943782     1.879365586     1.881939284    
1
  CONCENTRATION IN LAYER   9 AT END OF TIME STEP 200 IN STRESS PERIOD    1
  ---------------------------------------------------------------------------

                1               2               3               4               5               6               7               8               9              10
               11              12              13              14              15              16              17              18              19              20
               21              22              23              24              25
 ................................................................................................................................................................
   1  1.954204300     1.934663379     1.908944078     1.890484769     1.879969322     1.874483192     1.871707659     1.870317035     1.869623690     1.869282249    
      1.869123494     1.869075633     1.869093898     1.869163794     1.869301483     1.869526069     1.869866336     1.870360808     1.871056701     1.872008054    
      1.873272568     1.874905268     1.876943786     1.879365586     1.881939290    
1
  CONCENTRATION IN LAYER  10 AT END OF TIME STEP 200 IN STRESS PERIOD    1
  ---------------------------------------------------------------------------

                1               2               3               4               5               6               7               8               9              10
               11              12              13              14              15              16              17              18              19              20
               21              22              23              24              25
 ................................................................................................................................................................
   1  1.954204300     1.936927595     1.911875366     1.892539815     1.881124056     1.875081646     1.872009554     1.870468210     1.869699282     1.869320033    
      1.869142265     1.869084744     1.869099363     1.869166297     1.869302575     1.869526555     1.869866556     1.870360907     1.871056746     1.872008075    
      1.873272577     1.874905272     1.876943787     1.879365585     1.881939300    

 CONCENTRATION WILL BE SAVED ON UNIT 6669 AT END OF TIME STEP  200, STRESS PERIOD    1


  MASS BUDGET FOR ENTIRE MODEL AT END OF TIME STEP  200, STRESS PERIOD   1
  ---------------------------------------------------------------------------------------------------

     CUMULATIVE MASS      M       RATES FOR THIS TIME STEP      M/T          PACKAGE NAME    
     ------------------                 ------------------------                     ----------------

           IN:                                      IN:
           ---                                      ---
     STORAGE-AQUEOUS =          29.1670       STORAGE-AQUEOUS =       2.7119E-03     MST                              
                 CHD =         120.7668                   CHD =       6.0383E-02     SSM_CHD                          
                 CNC =         656.6448                   CNC =           0.3290     CNC                              

            TOTAL IN =         806.5786              TOTAL IN =           0.3921

          OUT:                                     OUT:
          ----                                     ----
     STORAGE-AQUEOUS =       1.3528E-06       STORAGE-AQUEOUS =           0.0000     MST                              
                 CHD =         806.5786                   CHD =           0.3921     SSM_CHD                          
                 CNC =           0.0000                   CNC =           0.0000     CNC                              

           TOTAL OUT =         806.5786             TOTAL OUT =           0.3921

            IN - OUT =       1.3795E-07              IN - OUT =       8.6659E-09

 PERCENT DISCREPANCY =           0.00     PERCENT DISCREPANCY =           0.00




         TIME SUMMARY AT END OF TIME STEP  200 IN STRESS PERIOD    1
                    SECONDS     MINUTES      HOURS       DAYS        YEARS
                    -----------------------------------------------------------
   TIME STEP LENGTH 8.64000E+05  14400.      240.00      10.000     2.73785E-02
 STRESS PERIOD TIME 1.72800E+08 2.88000E+06  48000.      2000.0      5.4757    
         TOTAL TIME 1.72800E+08 2.88000E+06  48000.      2000.0      5.4757    


end timestep

