                                   MODFLOW 6
                U.S. GEOLOGICAL SURVEY MODULAR HYDROLOGIC MODEL
                       GROUNDWATER TRANSPORT MODEL (GWT)
                VERSION 6.5.0.dev0+prt (preliminary) 10/07/2023
                               ***DEVELOP MODE***

   MODFLOW 6 compiled Oct 07 2023 02:19:02 with Intel(R) Fortran Intel(R) 64
   Compiler Classic for applications running on Intel(R) 64, Version 2021.7.0
                             Build 20220726_000000

This software is preliminary or provisional and is subject to 
revision. It is being provided to meet the need for timely best 
science. The software has not received final approval by the U.S. 
Geological Survey (USGS). No warranty, expressed or implied, is made 
by the USGS or the U.S. Government as to the functionality of the 
software and related material nor shall the fact of release 
constitute any such warranty. The software is provided on the 
condition that neither the USGS nor the U.S. Government shall be held 
liable for any damages resulting from the authorized or unauthorized 
use of the software.


As a work of the United States Government, this USGS product is 
in the public domain within the United States. You can copy, 
modify, distribute, and perform the work, even for commercial 
purposes, all without asking permission. Additionally, USGS 
waives copyright and related rights in the work worldwide 
through CC0 1.0 Universal Public Domain Dedication 
(https://creativecommons.org/publicdomain/zero/1.0/).

The following GNU Lesser General Public License (LGPL) libraries
are used in this USGS product:

    SPARSKIT version 2.0
      ilut, luson, and qsplit 
      (https://www-users.cse.umn.edu/~saad/software/SPARSKIT/)

    RCM - Reverse Cuthill McKee Ordering
      (https://people.math.sc.edu/Burkardt/f_src/rcm/rcm.html)

    BLAS - Basic Linear Algebra Subprograms Level 1
      (https://people.math.sc.edu/Burkardt/f_src/blas1_d/blas1_d.html)

    SPARSEKIT - Sparse Matrix Utility Package
      amux, dperm, dvperm, rperm, and cperm
      (https://people.sc.fsu.edu/~jburkardt/f77_src/sparsekit/sparsekit.html)

The following BSD-3 License libraries are used in this USGS product:

    Modern Fortran DAG Library
      Copyright (c) 2018, Jacob Williams
      All rights reserved.
      (https://github.com/jacobwilliams/daglib)

MODFLOW 6 compiler options: /Isrc\libmf6core.a.p /Isrc /I..\src
/Isrc\libmf6_external.a.p /MTd /nologo /warn:general /warn:truncated_source
/stand:f08 /Zi /traceback /O2 /fpe:0 /heap-arrays:0 /traceback /fpp
/Qdiag-disable:7416 /Qdiag-disable:7025 /Qdiag-disable:5268
/Fdsrc\libmf6core.a.p\Utilities_compilerversion.F90.pdb
/module:src\libmf6core.a.p
/Fosrc/libmf6core.a.p/Utilities_compilerversion.F90.obj /c

System command used to initiate simulation:
c:\Users\portega\anaconda3\envs\mf6rtm\python.exe -m ipykernel_launcher --f=c:\Users\portega\AppData\Roaming\jupyter\runtime\kernel-v2-17404w7nug58txkWt.json

MODFLOW was compiled using uniform precision.

Real Variables
  KIND: 8
  TINY (smallest non-zero value):    2.225074-308
  HUGE (largest value):    1.797693+308
  PRECISION: 15
  SIZE IN BITS: 64

Integer Variables
  KIND: 4
  HUGE (largest value): 2147483647
  SIZE IN BITS: 32

Long Integer Variables
  KIND: 8
  HUGE (largest value): 9223372036854775807
  SIZE IN BITS: 64

Logical Variables
  KIND: 4
  SIZE IN BITS: 32
 
 NAMEFILE OPTIONS:
 END NAMEFILE OPTIONS:

 DIS -- STRUCTURED GRID DISCRETIZATION PACKAGE, VERSION 2 : 3/27/2014 - INPUT READ FROM MEMPATH: __INPUT__/MN/DIS                                  


 DSP-- DISPERSION PACKAGE, VERSION 1, 1/24/2018 INPUT READ FROM MEMPATH: __INPUT__/MN/DSP                                  


 Setting Discretization Options
    Model length unit [0=UND, 1=FEET, 2=METERS, 3=CENTIMETERS] set as 2
 End Setting Discretization Options

 Setting Discretization Dimensions
    NLAY = 10
    NROW = 1
    NCOL = 25
 End Setting Discretization Dimensions

 Setting Discretization Griddata
    DELR set from input file
    DELC set from input file
    TOP set from input file
    BOTM set from input file
    IDOMAIN set from input file
 End Setting Discretization Griddata


 FMI -- FLOW MODEL INTERFACE,' VERSION 2, 8/17/2023
  FLOWS PROVIDED BY A GWF MODEL IN THIS SIMULATION

 ADV-- ADVECTION PACKAGE, VERSION 1, 8/25/2017 INPUT READ FROM UNIT 1682


 # File generated by Flopy version 3.5.0.dev0 on 07/12/2024 at 15:45:50.
 PROCESSING ADVECTION OPTIONS
    ADVECTION WEIGHTING SCHEME HAS BEEN SET TO: TVD
 END OF ADVECTION OPTIONS
 Setting DSP Options
    XT3D formulation [0=INACTIVE, 1=ACTIVE, 3=ACTIVE RHS] set to: 0
 End Setting DSP Options

 Setting DSP Griddata
    ALH set from input file
    ATH1 set from input file
    ATV set from input file
 End Setting DSP Griddata


 CNC   -- CNC PACKAGE, VERSION 8, 2/22/2014 INPUT READ FROM UNIT 1716
 # File generated by Flopy version 3.5.0.dev0 on 07/12/2024 at 15:45:50.

 PROCESSING CNC OPTIONS
    CNC FLOWS WILL BE PRINTED TO LISTING FILE.
    FLOWS WILL BE SAVED TO BUDGET FILE SPECIFIED IN OUTPUT CONTROL
 END OF CNC OPTIONS

 PROCESSING CNC DIMENSIONS
    MAXBOUND =       7
 END OF CNC DIMENSIONS

 IC -- INITIAL CONDITIONS PACKAGE, VERSION 8, 3/28/2015 INPUT READ FROM UNIT 1680
 # File generated by Flopy version 3.5.0.dev0 on 07/12/2024 at 15:45:50.
 PROCESSING GRIDDATA

 OPENED Mn.ic_strt_layer1.txt
 FILE TYPE:OPEN/CLOSE   UNIT 2078   STATUS:OLD                 
 FORMAT:FORMATTED              ACCESS:SEQUENTIAL          
 ACTION:READ                


 OPENED Mn.ic_strt_layer2.txt
 FILE TYPE:OPEN/CLOSE   UNIT 2079   STATUS:OLD                 
 FORMAT:FORMATTED              ACCESS:SEQUENTIAL          
 ACTION:READ                


 OPENED Mn.ic_strt_layer3.txt
 FILE TYPE:OPEN/CLOSE   UNIT 2080   STATUS:OLD                 
 FORMAT:FORMATTED              ACCESS:SEQUENTIAL          
 ACTION:READ                


 OPENED Mn.ic_strt_layer4.txt
 FILE TYPE:OPEN/CLOSE   UNIT 2081   STATUS:OLD                 
 FORMAT:FORMATTED              ACCESS:SEQUENTIAL          
 ACTION:READ                


 OPENED Mn.ic_strt_layer5.txt
 FILE TYPE:OPEN/CLOSE   UNIT 2082   STATUS:OLD                 
 FORMAT:FORMATTED              ACCESS:SEQUENTIAL          
 ACTION:READ                


 OPENED Mn.ic_strt_layer6.txt
 FILE TYPE:OPEN/CLOSE   UNIT 2083   STATUS:OLD                 
 FORMAT:FORMATTED              ACCESS:SEQUENTIAL          
 ACTION:READ                


 OPENED Mn.ic_strt_layer7.txt
 FILE TYPE:OPEN/CLOSE   UNIT 2084   STATUS:OLD                 
 FORMAT:FORMATTED              ACCESS:SEQUENTIAL          
 ACTION:READ                


 OPENED Mn.ic_strt_layer8.txt
 FILE TYPE:OPEN/CLOSE   UNIT 2085   STATUS:OLD                 
 FORMAT:FORMATTED              ACCESS:SEQUENTIAL          
 ACTION:READ                


 OPENED Mn.ic_strt_layer9.txt
 FILE TYPE:OPEN/CLOSE   UNIT 2086   STATUS:OLD                 
 FORMAT:FORMATTED              ACCESS:SEQUENTIAL          
 ACTION:READ                


 OPENED Mn.ic_strt_layer10.txt
 FILE TYPE:OPEN/CLOSE   UNIT 2087   STATUS:OLD                 
 FORMAT:FORMATTED              ACCESS:SEQUENTIAL          
 ACTION:READ                

 END PROCESSING GRIDDATA

 MST -- MOBILE STORAGE AND TRANSFER PACKAGE, VERSION 1, 7/29/2020 INPUT READ FROM UNIT 1681


 # File generated by Flopy version 3.5.0.dev0 on 07/12/2024 at 15:45:50.
 PROCESSING MOBILE STORAGE AND TRANSFER OPTIONS
 END OF MOBILE STORAGE AND TRANSFER OPTIONS
 PROCESSING GRIDDATA

 OPENED Mn.mst_porosity.txt
 FILE TYPE:OPEN/CLOSE   UNIT 2088   STATUS:OLD                 
 FORMAT:FORMATTED              ACCESS:SEQUENTIAL          
 ACTION:READ                

 END PROCESSING GRIDDATA

 SSM -- SOURCE-SINK MIXING PACKAGE, VERSION 1, 8/25/2017 INPUT READ FROM UNIT 1714


 # File generated by Flopy version 3.5.0.dev0 on 07/12/2024 at 15:45:50.
 PROCESSING SSM OPTIONS
    SSM FLOW INFORMATION WILL BE PRINTED TO LISTING FILE WHENEVER ICBCFL IS NOT ZERO.
    CELL-BY-CELL FLOW INFORMATION WILL BE SAVED TO BINARY FILE WHENEVER ICBCFL IS NOT ZERO.
 END OF SSM OPTIONS

 OPENED Mn.ssm_sources.txt
 FILE TYPE:OPEN/CLOSE   UNIT 2089   STATUS:OLD                 
 FORMAT:FORMATTED              ACCESS:SEQUENTIAL          
 ACTION:READ                

 PROCESSING SOURCES
 AUX SOURCE DETECTED.
    USING AUX COLUMN 11 IN PACKAGE CHD
 END PROCESSING SOURCES
 OPTIONAL FILEINPUT BLOCK NOT FOUND.  CONTINUING.
      THE LAST TIME STEP WILL BE PRINTED
      THE LAST TIME STEP WILL BE PRINTED
 # File generated by Flopy version 3.5.0.dev0 on 07/12/2024 at 15:45:50.

 PROCESSING OC OPTIONS

    BUDGET INFORMATION WILL BE WRITTEN TO:
      UNIT NUMBER: 2090
      FILE NAME: Mn.cbb

 OPENED Mn.cbb
 FILE TYPE:DATA(BINARY)   UNIT 2090   STATUS:REPLACE             
 FORMAT:UNFORMATTED            ACCESS:STREAM              
 ACTION:READWRITE           

    CONCENTRATION INFORMATION WILL BE WRITTEN TO:
      UNIT NUMBER: 2091
      FILE NAME: Mn.ucn

 OPENED Mn.ucn
 FILE TYPE:DATA(BINARY)   UNIT 2091   STATUS:REPLACE             
 FORMAT:UNFORMATTED            ACCESS:STREAM              
 ACTION:READWRITE           

 END OF OC OPTIONS

start timestep kper="1" kstp="1" mode="normal"


 BEGIN READING OUTPUT CONTROL FOR STRESS PERIOD 1
      ALL TIME STEPS WILL BE SAVED
      ALL TIME STEPS WILL BE SAVED
      ALL TIME STEPS WILL BE PRINTED
      ALL TIME STEPS WILL BE PRINTED

 END READING OUTPUT CONTROL FOR STRESS PERIOD 1

 OPENED Mn.cnc_stress_period_data_1.txt
 FILE TYPE:OPEN/CLOSE   UNIT 2144   STATUS:OLD                 
 FORMAT:FORMATTED              ACCESS:SEQUENTIAL          
 ACTION:READ                

 UBDSV06 SAVING  SOURCE-SINK MIX IN MODEL MN               PACKAGE MN              CONNECTED TO MODEL MN               PACKAGE SSM              ON UNIT   2090 AT TIME STEP      1, STRESS PERIOD      1
 UBDSV06 SAVING              CNC IN MODEL MN               PACKAGE MN              CONNECTED TO MODEL MN               PACKAGE CNC              ON UNIT   2090 AT TIME STEP      1, STRESS PERIOD      1

 SSM PACKAGE (SSM) FLOW RATES   PERIOD      1   STEP        1
 ------------------------------------------------------------------------------------------------
   NUMBER   CELLID                   BOUND Q        SSM CONC          RATE         PACKAGE NAME  
 ------------------------------------------------------------------------------------------------
     1      (1,1,1)               2.08333361E-02  9.80093000E-03  2.04186069E-04       CHD       
     2      (2,1,1)               2.08333361E-02  9.80093000E-03  2.04186069E-04       CHD       
     3      (3,1,1)               2.08333361E-02  9.80093000E-03  2.04186069E-04       CHD       
     4      (4,1,1)               0.0000000       0.0000000       0.0000000            CHD       
     5      (5,1,1)               0.0000000       0.0000000       0.0000000            CHD       
     6      (6,1,1)               0.0000000       0.0000000       0.0000000            CHD       
     7      (7,1,1)               0.0000000       0.0000000       0.0000000            CHD       
     8      (8,1,1)               0.0000000       0.0000000       0.0000000            CHD       
     9      (9,1,1)               0.0000000       0.0000000       0.0000000            CHD       
     10     (10,1,1)              0.0000000       0.0000000       0.0000000            CHD       
     11     (1,1,25)             -2.08333402E-02  4.71601300E-02 -9.82503033E-04       CHD       
     12     (2,1,25)             -2.08333402E-02  4.71601300E-02 -9.82503033E-04       CHD       
     13     (3,1,25)             -2.08333402E-02  4.71601300E-02 -9.82503034E-04       CHD       
     14     (4,1,25)             -2.08333403E-02  4.71601300E-02 -9.82503035E-04       CHD       
     15     (5,1,25)             -2.08333403E-02  4.71601300E-02 -9.82503036E-04       CHD       
     16     (6,1,25)             -2.08333403E-02  4.71601300E-02 -9.82503036E-04       CHD       
     17     (7,1,25)             -2.08333403E-02  4.71601300E-02 -9.82503037E-04       CHD       
     18     (8,1,25)             -2.08333403E-02  4.71601300E-02 -9.82503037E-04       CHD       
     19     (9,1,25)             -2.08333403E-02  4.71601300E-02 -9.82503036E-04       CHD       
     20     (10,1,25)            -2.08333403E-02  4.71601300E-02 -9.82503036E-04       CHD       
 ------------------------------------------------------------------------------------------------




 CNC PACKAGE (CNC) FLOW RATES   PERIOD      1   STEP        1
 -----------------------------------------------
   NUMBER   CELLID                    RATE      
 -----------------------------------------------
     1      (4,1,1)               1.53320313E-03
     2      (5,1,1)               9.83423182E-04
     3      (6,1,1)               9.82875859E-04
     4      (7,1,1)               9.82654628E-04
     5      (8,1,1)               9.82565261E-04
     6      (9,1,1)               9.82529778E-04
     7      (10,1,1)              9.82517388E-04
 -----------------------------------------------



1
  CONCENTRATION IN LAYER   1 AT END OF TIME STEP   1 IN STRESS PERIOD    1
  ---------------------------------------------------------------------------

                1               2               3               4               5               6               7               8               9              10
               11              12              13              14              15              16              17              18              19              20
               21              22              23              24              25
 ................................................................................................................................................................
   1  *************** *************** *************** *************** *************** *************** *************** *************** *************** ***************
      *************** *************** *************** *************** *************** *************** *************** *************** *************** ***************
      *************** *************** *************** *************** ***************
1
  CONCENTRATION IN LAYER   2 AT END OF TIME STEP   1 IN STRESS PERIOD    1
  ---------------------------------------------------------------------------

                1               2               3               4               5               6               7               8               9              10
               11              12              13              14              15              16              17              18              19              20
               21              22              23              24              25
 ................................................................................................................................................................
   1  *************** *************** *************** *************** *************** *************** *************** *************** *************** ***************
      *************** *************** *************** *************** *************** *************** *************** *************** *************** ***************
      *************** *************** *************** *************** ***************
1
  CONCENTRATION IN LAYER   3 AT END OF TIME STEP   1 IN STRESS PERIOD    1
  ---------------------------------------------------------------------------

                1               2               3               4               5               6               7               8               9              10
               11              12              13              14              15              16              17              18              19              20
               21              22              23              24              25
 ................................................................................................................................................................
   1  *************** *************** *************** *************** *************** *************** *************** *************** *************** ***************
      *************** *************** *************** *************** *************** *************** *************** *************** *************** ***************
      *************** *************** *************** *************** ***************
1
  CONCENTRATION IN LAYER   4 AT END OF TIME STEP   1 IN STRESS PERIOD    1
  ---------------------------------------------------------------------------

                1               2               3               4               5               6               7               8               9              10
               11              12              13              14              15              16              17              18              19              20
               21              22              23              24              25
 ................................................................................................................................................................
   1  *************** *************** *************** *************** *************** *************** *************** *************** *************** ***************
      *************** *************** *************** *************** *************** *************** *************** *************** *************** ***************
      *************** *************** *************** *************** ***************
1
  CONCENTRATION IN LAYER   5 AT END OF TIME STEP   1 IN STRESS PERIOD    1
  ---------------------------------------------------------------------------

                1               2               3               4               5               6               7               8               9              10
               11              12              13              14              15              16              17              18              19              20
               21              22              23              24              25
 ................................................................................................................................................................
   1  *************** *************** *************** *************** *************** *************** *************** *************** *************** ***************
      *************** *************** *************** *************** *************** *************** *************** *************** *************** ***************
      *************** *************** *************** *************** ***************
1
  CONCENTRATION IN LAYER   6 AT END OF TIME STEP   1 IN STRESS PERIOD    1
  ---------------------------------------------------------------------------

                1               2               3               4               5               6               7               8               9              10
               11              12              13              14              15              16              17              18              19              20
               21              22              23              24              25
 ................................................................................................................................................................
   1  *************** *************** *************** *************** *************** *************** *************** *************** *************** ***************
      *************** *************** *************** *************** *************** *************** *************** *************** *************** ***************
      *************** *************** *************** *************** ***************
1
  CONCENTRATION IN LAYER   7 AT END OF TIME STEP   1 IN STRESS PERIOD    1
  ---------------------------------------------------------------------------

                1               2               3               4               5               6               7               8               9              10
               11              12              13              14              15              16              17              18              19              20
               21              22              23              24              25
 ................................................................................................................................................................
   1  *************** *************** *************** *************** *************** *************** *************** *************** *************** ***************
      *************** *************** *************** *************** *************** *************** *************** *************** *************** ***************
      *************** *************** *************** *************** ***************
1
  CONCENTRATION IN LAYER   8 AT END OF TIME STEP   1 IN STRESS PERIOD    1
  ---------------------------------------------------------------------------

                1               2               3               4               5               6               7               8               9              10
               11              12              13              14              15              16              17              18              19              20
               21              22              23              24              25
 ................................................................................................................................................................
   1  *************** *************** *************** *************** *************** *************** *************** *************** *************** ***************
      *************** *************** *************** *************** *************** *************** *************** *************** *************** ***************
      *************** *************** *************** *************** ***************
1
  CONCENTRATION IN LAYER   9 AT END OF TIME STEP   1 IN STRESS PERIOD    1
  ---------------------------------------------------------------------------

                1               2               3               4               5               6               7               8               9              10
               11              12              13              14              15              16              17              18              19              20
               21              22              23              24              25
 ................................................................................................................................................................
   1  *************** *************** *************** *************** *************** *************** *************** *************** *************** ***************
      *************** *************** *************** *************** *************** *************** *************** *************** *************** ***************
      *************** *************** *************** *************** ***************
1
  CONCENTRATION IN LAYER  10 AT END OF TIME STEP   1 IN STRESS PERIOD    1
  ---------------------------------------------------------------------------

                1               2               3               4               5               6               7               8               9              10
               11              12              13              14              15              16              17              18              19              20
               21              22              23              24              25
 ................................................................................................................................................................
   1  *************** *************** *************** *************** *************** *************** *************** *************** *************** ***************
      *************** *************** *************** *************** *************** *************** *************** *************** *************** ***************
      *************** *************** *************** *************** ***************

 CONCENTRATION WILL BE SAVED ON UNIT 2091 AT END OF TIME STEP    1, STRESS PERIOD    1


  MASS BUDGET FOR ENTIRE MODEL AT END OF TIME STEP    1, STRESS PERIOD   1
  ---------------------------------------------------------------------------------------------------

     CUMULATIVE MASS      M       RATES FOR THIS TIME STEP      M/T          PACKAGE NAME    
     ------------------                 ------------------------                     ----------------

           IN:                                      IN:
           ---                                      ---
     STORAGE-AQUEOUS =       1.7827E-02       STORAGE-AQUEOUS =       1.7827E-03     MST                              
                 CHD =       6.1256E-03                   CHD =       6.1256E-04     SSM_CHD                          
                 CNC =       7.4298E-02                   CNC =       7.4298E-03     CNC                              

            TOTAL IN =       9.8250E-02              TOTAL IN =       9.8250E-03

          OUT:                                     OUT:
          ----                                     ----
     STORAGE-AQUEOUS =       2.1069E-08       STORAGE-AQUEOUS =       2.1069E-09     MST                              
                 CHD =       9.8250E-02                   CHD =       9.8250E-03     SSM_CHD                          
                 CNC =           0.0000                   CNC =           0.0000     CNC                              

           TOTAL OUT =       9.8250E-02             TOTAL OUT =       9.8250E-03

            IN - OUT =      -1.7255E-09              IN - OUT =      -1.7255E-10

 PERCENT DISCREPANCY =          -0.00     PERCENT DISCREPANCY =          -0.00




         TIME SUMMARY AT END OF TIME STEP    1 IN STRESS PERIOD    1
                    SECONDS     MINUTES      HOURS       DAYS        YEARS
                    -----------------------------------------------------------
   TIME STEP LENGTH 8.64000E+05  14400.      240.00      10.000     2.73785E-02
 STRESS PERIOD TIME 8.64000E+05  14400.      240.00      10.000     2.73785E-02
         TOTAL TIME 8.64000E+05  14400.      240.00      10.000     2.73785E-02


end timestep


start timestep kper="1" kstp="2" mode="normal"

 UBDSV06 SAVING  SOURCE-SINK MIX IN MODEL MN               PACKAGE MN              CONNECTED TO MODEL MN               PACKAGE SSM              ON UNIT   2090 AT TIME STEP      2, STRESS PERIOD      1
 UBDSV06 SAVING              CNC IN MODEL MN               PACKAGE MN              CONNECTED TO MODEL MN               PACKAGE CNC              ON UNIT   2090 AT TIME STEP      2, STRESS PERIOD      1

 SSM PACKAGE (SSM) FLOW RATES   PERIOD      1   STEP        2
 ------------------------------------------------------------------------------------------------
   NUMBER   CELLID                   BOUND Q        SSM CONC          RATE         PACKAGE NAME  
 ------------------------------------------------------------------------------------------------
     1      (1,1,1)               2.08333319E-02  9.80093000E-03  2.04186027E-04       CHD       
     2      (2,1,1)               2.08333319E-02  9.80093000E-03  2.04186027E-04       CHD       
     3      (3,1,1)               2.08333319E-02  9.80093000E-03  2.04186027E-04       CHD       
     4      (4,1,1)               0.0000000       0.0000000       0.0000000            CHD       
     5      (5,1,1)               0.0000000       0.0000000       0.0000000            CHD       
     6      (6,1,1)               0.0000000       0.0000000       0.0000000            CHD       
     7      (7,1,1)               0.0000000       0.0000000       0.0000000            CHD       
     8      (8,1,1)               0.0000000       0.0000000       0.0000000            CHD       
     9      (9,1,1)               0.0000000       0.0000000       0.0000000            CHD       
     10     (10,1,1)              0.0000000       0.0000000       0.0000000            CHD       
     11     (1,1,25)             -2.08333370E-02  4.71601300E-02 -9.82502880E-04       CHD       
     12     (2,1,25)             -2.08333370E-02  4.71601300E-02 -9.82502881E-04       CHD       
     13     (3,1,25)             -2.08333370E-02  4.71601300E-02 -9.82502881E-04       CHD       
     14     (4,1,25)             -2.08333370E-02  4.71601300E-02 -9.82502881E-04       CHD       
     15     (5,1,25)             -2.08333370E-02  4.71601300E-02 -9.82502882E-04       CHD       
     16     (6,1,25)             -2.08333370E-02  4.71601300E-02 -9.82502882E-04       CHD       
     17     (7,1,25)             -2.08333370E-02  4.71601300E-02 -9.82502882E-04       CHD       
     18     (8,1,25)             -2.08333370E-02  4.71601300E-02 -9.82502882E-04       CHD       
     19     (9,1,25)             -2.08333370E-02  4.71601300E-02 -9.82502882E-04       CHD       
     20     (10,1,25)            -2.08333370E-02  4.71601300E-02 -9.82502882E-04       CHD       
 ------------------------------------------------------------------------------------------------




 CNC PACKAGE (CNC) FLOW RATES   PERIOD      1   STEP        2
 -----------------------------------------------
   NUMBER   CELLID                    RATE      
 -----------------------------------------------
     1      (4,1,1)               1.84823067E-03
     2      (5,1,1)               9.85284532E-04
     3      (6,1,1)               9.83754828E-04
     4      (7,1,1)               9.83063680E-04
     5      (8,1,1)               9.82755380E-04
     6      (9,1,1)               9.82622113E-04
     7      (10,1,1)              9.82572607E-04
 -----------------------------------------------



1
  CONCENTRATION IN LAYER   1 AT END OF TIME STEP   2 IN STRESS PERIOD    1
  ---------------------------------------------------------------------------

                1               2               3               4               5               6               7               8               9              10
               11              12              13              14              15              16              17              18              19              20
               21              22              23              24              25
 ................................................................................................................................................................
   1  *************** *************** *************** *************** *************** *************** *************** *************** *************** ***************
      *************** *************** *************** *************** *************** *************** *************** *************** *************** ***************
      *************** *************** *************** *************** ***************
1
  CONCENTRATION IN LAYER   2 AT END OF TIME STEP   2 IN STRESS PERIOD    1
  ---------------------------------------------------------------------------

                1               2               3               4               5               6               7               8               9              10
               11              12              13              14              15              16              17              18              19              20
               21              22              23              24              25
 ................................................................................................................................................................
   1  *************** *************** *************** *************** *************** *************** *************** *************** *************** ***************
      *************** *************** *************** *************** *************** *************** *************** *************** *************** ***************
      *************** *************** *************** *************** ***************
1
  CONCENTRATION IN LAYER   3 AT END OF TIME STEP   2 IN STRESS PERIOD    1
  ---------------------------------------------------------------------------

                1               2               3               4               5               6               7               8               9              10
               11              12              13              14              15              16              17              18              19              20
               21              22              23              24              25
 ................................................................................................................................................................
   1  *************** *************** *************** *************** *************** *************** *************** *************** *************** ***************
      *************** *************** *************** *************** *************** *************** *************** *************** *************** ***************
      *************** *************** *************** *************** ***************
1
  CONCENTRATION IN LAYER   4 AT END OF TIME STEP   2 IN STRESS PERIOD    1
  ---------------------------------------------------------------------------

                1               2               3               4               5               6               7               8               9              10
               11              12              13              14              15              16              17              18              19              20
               21              22              23              24              25
 ................................................................................................................................................................
   1  *************** *************** *************** *************** *************** *************** *************** *************** *************** ***************
      *************** *************** *************** *************** *************** *************** *************** *************** *************** ***************
      *************** *************** *************** *************** ***************
1
  CONCENTRATION IN LAYER   5 AT END OF TIME STEP   2 IN STRESS PERIOD    1
  ---------------------------------------------------------------------------

                1               2               3               4               5               6               7               8               9              10
               11              12              13              14              15              16              17              18              19              20
               21              22              23              24              25
 ................................................................................................................................................................
   1  *************** *************** *************** *************** *************** *************** *************** *************** *************** ***************
      *************** *************** *************** *************** *************** *************** *************** *************** *************** ***************
      *************** *************** *************** *************** ***************
1
  CONCENTRATION IN LAYER   6 AT END OF TIME STEP   2 IN STRESS PERIOD    1
  ---------------------------------------------------------------------------

                1               2               3               4               5               6               7               8               9              10
               11              12              13              14              15              16              17              18              19              20
               21              22              23              24              25
 ................................................................................................................................................................
   1  *************** *************** *************** *************** *************** *************** *************** *************** *************** ***************
      *************** *************** *************** *************** *************** *************** *************** *************** *************** ***************
      *************** *************** *************** *************** ***************
1
  CONCENTRATION IN LAYER   7 AT END OF TIME STEP   2 IN STRESS PERIOD    1
  ---------------------------------------------------------------------------

                1               2               3               4               5               6               7               8               9              10
               11              12              13              14              15              16              17              18              19              20
               21              22              23              24              25
 ................................................................................................................................................................
   1  *************** *************** *************** *************** *************** *************** *************** *************** *************** ***************
      *************** *************** *************** *************** *************** *************** *************** *************** *************** ***************
      *************** *************** *************** *************** ***************
1
  CONCENTRATION IN LAYER   8 AT END OF TIME STEP   2 IN STRESS PERIOD    1
  ---------------------------------------------------------------------------

                1               2               3               4               5               6               7               8               9              10
               11              12              13              14              15              16              17              18              19              20
               21              22              23              24              25
 ................................................................................................................................................................
   1  *************** *************** *************** *************** *************** *************** *************** *************** *************** ***************
      *************** *************** *************** *************** *************** *************** *************** *************** *************** ***************
      *************** *************** *************** *************** ***************
1
  CONCENTRATION IN LAYER   9 AT END OF TIME STEP   2 IN STRESS PERIOD    1
  ---------------------------------------------------------------------------

                1               2               3               4               5               6               7               8               9              10
               11              12              13              14              15              16              17              18              19              20
               21              22              23              24              25
 ................................................................................................................................................................
   1  *************** *************** *************** *************** *************** *************** *************** *************** *************** ***************
      *************** *************** *************** *************** *************** *************** *************** *************** *************** ***************
      *************** *************** *************** *************** ***************
1
  CONCENTRATION IN LAYER  10 AT END OF TIME STEP   2 IN STRESS PERIOD    1
  ---------------------------------------------------------------------------

                1               2               3               4               5               6               7               8               9              10
               11              12              13              14              15              16              17              18              19              20
               21              22              23              24              25
 ................................................................................................................................................................
   1  *************** *************** *************** *************** *************** *************** *************** *************** *************** ***************
      *************** *************** *************** *************** *************** *************** *************** *************** *************** ***************
      *************** *************** *************** *************** ***************

 CONCENTRATION WILL BE SAVED ON UNIT 2091 AT END OF TIME STEP    2, STRESS PERIOD    1


  MASS BUDGET FOR ENTIRE MODEL AT END OF TIME STEP    2, STRESS PERIOD   1
  ---------------------------------------------------------------------------------------------------

     CUMULATIVE MASS      M       RATES FOR THIS TIME STEP      M/T          PACKAGE NAME    
     ------------------                 ------------------------                     ----------------

           IN:                                      IN:
           ---                                      ---
     STORAGE-AQUEOUS =       3.2469E-02       STORAGE-AQUEOUS =       1.4642E-03     MST                              
                 CHD =       1.2251E-02                   CHD =       6.1256E-04     SSM_CHD                          
                 CNC =           0.1518                   CNC =       7.7483E-03     CNC                              

            TOTAL IN =           0.1965              TOTAL IN =       9.8250E-03

          OUT:                                     OUT:
          ----                                     ----
     STORAGE-AQUEOUS =       2.7872E-08       STORAGE-AQUEOUS =       6.8036E-10     MST                              
                 CHD =           0.1965                   CHD =       9.8250E-03     SSM_CHD                          
                 CNC =           0.0000                   CNC =           0.0000     CNC                              

           TOTAL OUT =           0.1965             TOTAL OUT =       9.8250E-03

            IN - OUT =      -6.1446E-09              IN - OUT =      -4.4191E-10

 PERCENT DISCREPANCY =          -0.00     PERCENT DISCREPANCY =          -0.00




         TIME SUMMARY AT END OF TIME STEP    2 IN STRESS PERIOD    1
                    SECONDS     MINUTES      HOURS       DAYS        YEARS
                    -----------------------------------------------------------
   TIME STEP LENGTH 8.64000E+05  14400.      240.00      10.000     2.73785E-02
 STRESS PERIOD TIME 1.72800E+06  28800.      480.00      20.000     5.47570E-02
         TOTAL TIME 1.72800E+06  28800.      480.00      20.000     5.47570E-02


end timestep


start timestep kper="1" kstp="3" mode="normal"

 UBDSV06 SAVING  SOURCE-SINK MIX IN MODEL MN               PACKAGE MN              CONNECTED TO MODEL MN               PACKAGE SSM              ON UNIT   2090 AT TIME STEP      3, STRESS PERIOD      1
 UBDSV06 SAVING              CNC IN MODEL MN               PACKAGE MN              CONNECTED TO MODEL MN               PACKAGE CNC              ON UNIT   2090 AT TIME STEP      3, STRESS PERIOD      1

 SSM PACKAGE (SSM) FLOW RATES   PERIOD      1   STEP        3
 ------------------------------------------------------------------------------------------------
   NUMBER   CELLID                   BOUND Q        SSM CONC          RATE         PACKAGE NAME  
 ------------------------------------------------------------------------------------------------
     1      (1,1,1)               2.08333325E-02  9.80093000E-03  2.04186034E-04       CHD       
     2      (2,1,1)               2.08333325E-02  9.80093000E-03  2.04186034E-04       CHD       
     3      (3,1,1)               2.08333325E-02  9.80093000E-03  2.04186034E-04       CHD       
     4      (4,1,1)               0.0000000       0.0000000       0.0000000            CHD       
     5      (5,1,1)               0.0000000       0.0000000       0.0000000            CHD       
     6      (6,1,1)               0.0000000       0.0000000       0.0000000            CHD       
     7      (7,1,1)               0.0000000       0.0000000       0.0000000            CHD       
     8      (8,1,1)               0.0000000       0.0000000       0.0000000            CHD       
     9      (9,1,1)               0.0000000       0.0000000       0.0000000            CHD       
     10     (10,1,1)              0.0000000       0.0000000       0.0000000            CHD       
     11     (1,1,25)             -2.08333362E-02  4.71601300E-02 -9.82502843E-04       CHD       
     12     (2,1,25)             -2.08333362E-02  4.71601300E-02 -9.82502843E-04       CHD       
     13     (3,1,25)             -2.08333362E-02  4.71601300E-02 -9.82502843E-04       CHD       
     14     (4,1,25)             -2.08333362E-02  4.71601300E-02 -9.82502843E-04       CHD       
     15     (5,1,25)             -2.08333362E-02  4.71601300E-02 -9.82502844E-04       CHD       
     16     (6,1,25)             -2.08333362E-02  4.71601300E-02 -9.82502844E-04       CHD       
     17     (7,1,25)             -2.08333362E-02  4.71601300E-02 -9.82502844E-04       CHD       
     18     (8,1,25)             -2.08333362E-02  4.71601300E-02 -9.82502844E-04       CHD       
     19     (9,1,25)             -2.08333362E-02  4.71601300E-02 -9.82502844E-04       CHD       
     20     (10,1,25)            -2.08333362E-02  4.71601300E-02 -9.82502844E-04       CHD       
 ------------------------------------------------------------------------------------------------




 CNC PACKAGE (CNC) FLOW RATES   PERIOD      1   STEP        3
 -----------------------------------------------
   NUMBER   CELLID                    RATE      
 -----------------------------------------------
     1      (4,1,1)               2.04832936E-03
     2      (5,1,1)               9.87784969E-04
     3      (6,1,1)               9.85072791E-04
     4      (7,1,1)               9.83743764E-04
     5      (8,1,1)               9.83104668E-04
     6      (9,1,1)               9.82809728E-04
     7      (10,1,1)              9.82694824E-04
 -----------------------------------------------



1
  CONCENTRATION IN LAYER   1 AT END OF TIME STEP   3 IN STRESS PERIOD    1
  ---------------------------------------------------------------------------

                1               2               3               4               5               6               7               8               9              10
               11              12              13              14              15              16              17              18              19              20
               21              22              23              24              25
 ................................................................................................................................................................
   1  *************** *************** *************** *************** *************** *************** *************** *************** *************** ***************
      *************** *************** *************** *************** *************** *************** *************** *************** *************** ***************
      *************** *************** *************** *************** ***************
1
  CONCENTRATION IN LAYER   2 AT END OF TIME STEP   3 IN STRESS PERIOD    1
  ---------------------------------------------------------------------------

                1               2               3               4               5               6               7               8               9              10
               11              12              13              14              15              16              17              18              19              20
               21              22              23              24              25
 ................................................................................................................................................................
   1  *************** *************** *************** *************** *************** *************** *************** *************** *************** ***************
      *************** *************** *************** *************** *************** *************** *************** *************** *************** ***************
      *************** *************** *************** *************** ***************
1
  CONCENTRATION IN LAYER   3 AT END OF TIME STEP   3 IN STRESS PERIOD    1
  ---------------------------------------------------------------------------

                1               2               3               4               5               6               7               8               9              10
               11              12              13              14              15              16              17              18              19              20
               21              22              23              24              25
 ................................................................................................................................................................
   1  *************** *************** *************** *************** *************** *************** *************** *************** *************** ***************
      *************** *************** *************** *************** *************** *************** *************** *************** *************** ***************
      *************** *************** *************** *************** ***************
1
  CONCENTRATION IN LAYER   4 AT END OF TIME STEP   3 IN STRESS PERIOD    1
  ---------------------------------------------------------------------------

                1               2               3               4               5               6               7               8               9              10
               11              12              13              14              15              16              17              18              19              20
               21              22              23              24              25
 ................................................................................................................................................................
   1  *************** *************** *************** *************** *************** *************** *************** *************** *************** ***************
      *************** *************** *************** *************** *************** *************** *************** *************** *************** ***************
      *************** *************** *************** *************** ***************
1
  CONCENTRATION IN LAYER   5 AT END OF TIME STEP   3 IN STRESS PERIOD    1
  ---------------------------------------------------------------------------

                1               2               3               4               5               6               7               8               9              10
               11              12              13              14              15              16              17              18              19              20
               21              22              23              24              25
 ................................................................................................................................................................
   1  *************** *************** *************** *************** *************** *************** *************** *************** *************** ***************
      *************** *************** *************** *************** *************** *************** *************** *************** *************** ***************
      *************** *************** *************** *************** ***************
1
  CONCENTRATION IN LAYER   6 AT END OF TIME STEP   3 IN STRESS PERIOD    1
  ---------------------------------------------------------------------------

                1               2               3               4               5               6               7               8               9              10
               11              12              13              14              15              16              17              18              19              20
               21              22              23              24              25
 ................................................................................................................................................................
   1  *************** *************** *************** *************** *************** *************** *************** *************** *************** ***************
      *************** *************** *************** *************** *************** *************** *************** *************** *************** ***************
      *************** *************** *************** *************** ***************
1
  CONCENTRATION IN LAYER   7 AT END OF TIME STEP   3 IN STRESS PERIOD    1
  ---------------------------------------------------------------------------

                1               2               3               4               5               6               7               8               9              10
               11              12              13              14              15              16              17              18              19              20
               21              22              23              24              25
 ................................................................................................................................................................
   1  *************** *************** *************** *************** *************** *************** *************** *************** *************** ***************
      *************** *************** *************** *************** *************** *************** *************** *************** *************** ***************
      *************** *************** *************** *************** ***************
1
  CONCENTRATION IN LAYER   8 AT END OF TIME STEP   3 IN STRESS PERIOD    1
  ---------------------------------------------------------------------------

                1               2               3               4               5               6               7               8               9              10
               11              12              13              14              15              16              17              18              19              20
               21              22              23              24              25
 ................................................................................................................................................................
   1  *************** *************** *************** *************** *************** *************** *************** *************** *************** ***************
      *************** *************** *************** *************** *************** *************** *************** *************** *************** ***************
      *************** *************** *************** *************** ***************
1
  CONCENTRATION IN LAYER   9 AT END OF TIME STEP   3 IN STRESS PERIOD    1
  ---------------------------------------------------------------------------

                1               2               3               4               5               6               7               8               9              10
               11              12              13              14              15              16              17              18              19              20
               21              22              23              24              25
 ................................................................................................................................................................
   1  *************** *************** *************** *************** *************** *************** *************** *************** *************** ***************
      *************** *************** *************** *************** *************** *************** *************** *************** *************** ***************
      *************** *************** *************** *************** ***************
1
  CONCENTRATION IN LAYER  10 AT END OF TIME STEP   3 IN STRESS PERIOD    1
  ---------------------------------------------------------------------------

                1               2               3               4               5               6               7               8               9              10
               11              12              13              14              15              16              17              18              19              20
               21              22              23              24              25
 ................................................................................................................................................................
   1  *************** *************** *************** *************** *************** *************** *************** *************** *************** ***************
      *************** *************** *************** *************** *************** *************** *************** *************** *************** ***************
      *************** *************** *************** *************** ***************

 CONCENTRATION WILL BE SAVED ON UNIT 2091 AT END OF TIME STEP    3, STRESS PERIOD    1


  MASS BUDGET FOR ENTIRE MODEL AT END OF TIME STEP    3, STRESS PERIOD   1
  ---------------------------------------------------------------------------------------------------

     CUMULATIVE MASS      M       RATES FOR THIS TIME STEP      M/T          PACKAGE NAME    
     ------------------                 ------------------------                     ----------------

           IN:                                      IN:
           ---                                      ---
     STORAGE-AQUEOUS =       4.5058E-02       STORAGE-AQUEOUS =       1.2589E-03     MST                              
                 CHD =       1.8377E-02                   CHD =       6.1256E-04     SSM_CHD                          
                 CNC =           0.2313                   CNC =       7.9535E-03     CNC                              

            TOTAL IN =           0.2948              TOTAL IN =       9.8250E-03

          OUT:                                     OUT:
          ----                                     ----
     STORAGE-AQUEOUS =       2.9525E-08       STORAGE-AQUEOUS =       1.6526E-10     MST                              
                 CHD =           0.2948                   CHD =       9.8250E-03     SSM_CHD                          
                 CNC =           0.0000                   CNC =           0.0000     CNC                              

           TOTAL OUT =           0.2948             TOTAL OUT =       9.8250E-03

            IN - OUT =      -9.8063E-09              IN - OUT =      -3.6617E-10

 PERCENT DISCREPANCY =          -0.00     PERCENT DISCREPANCY =          -0.00




         TIME SUMMARY AT END OF TIME STEP    3 IN STRESS PERIOD    1
                    SECONDS     MINUTES      HOURS       DAYS        YEARS
                    -----------------------------------------------------------
   TIME STEP LENGTH 8.64000E+05  14400.      240.00      10.000     2.73785E-02
 STRESS PERIOD TIME 2.59200E+06  43200.      720.00      30.000     8.21355E-02
         TOTAL TIME 2.59200E+06  43200.      720.00      30.000     8.21355E-02


end timestep


start timestep kper="1" kstp="4" mode="normal"

 UBDSV06 SAVING  SOURCE-SINK MIX IN MODEL MN               PACKAGE MN              CONNECTED TO MODEL MN               PACKAGE SSM              ON UNIT   2090 AT TIME STEP      4, STRESS PERIOD      1
 UBDSV06 SAVING              CNC IN MODEL MN               PACKAGE MN              CONNECTED TO MODEL MN               PACKAGE CNC              ON UNIT   2090 AT TIME STEP      4, STRESS PERIOD      1

 SSM PACKAGE (SSM) FLOW RATES   PERIOD      1   STEP        4
 ------------------------------------------------------------------------------------------------
   NUMBER   CELLID                   BOUND Q        SSM CONC          RATE         PACKAGE NAME  
 ------------------------------------------------------------------------------------------------
     1      (1,1,1)               2.08333321E-02  9.80093000E-03  2.04186030E-04       CHD       
     2      (2,1,1)               2.08333321E-02  9.80093000E-03  2.04186030E-04       CHD       
     3      (3,1,1)               2.08333321E-02  9.80093000E-03  2.04186030E-04       CHD       
     4      (4,1,1)               0.0000000       0.0000000       0.0000000            CHD       
     5      (5,1,1)               0.0000000       0.0000000       0.0000000            CHD       
     6      (6,1,1)               0.0000000       0.0000000       0.0000000            CHD       
     7      (7,1,1)               0.0000000       0.0000000       0.0000000            CHD       
     8      (8,1,1)               0.0000000       0.0000000       0.0000000            CHD       
     9      (9,1,1)               0.0000000       0.0000000       0.0000000            CHD       
     10     (10,1,1)              0.0000000       0.0000000       0.0000000            CHD       
     11     (1,1,25)             -2.08333356E-02  4.71601300E-02 -9.82502815E-04       CHD       
     12     (2,1,25)             -2.08333356E-02  4.71601300E-02 -9.82502815E-04       CHD       
     13     (3,1,25)             -2.08333356E-02  4.71601299E-02 -9.82502815E-04       CHD       
     14     (4,1,25)             -2.08333356E-02  4.71601299E-02 -9.82502815E-04       CHD       
     15     (5,1,25)             -2.08333356E-02  4.71601299E-02 -9.82502815E-04       CHD       
     16     (6,1,25)             -2.08333356E-02  4.71601299E-02 -9.82502815E-04       CHD       
     17     (7,1,25)             -2.08333356E-02  4.71601299E-02 -9.82502815E-04       CHD       
     18     (8,1,25)             -2.08333356E-02  4.71601299E-02 -9.82502815E-04       CHD       
     19     (9,1,25)             -2.08333356E-02  4.71601299E-02 -9.82502815E-04       CHD       
     20     (10,1,25)            -2.08333356E-02  4.71601299E-02 -9.82502815E-04       CHD       
 ------------------------------------------------------------------------------------------------




 CNC PACKAGE (CNC) FLOW RATES   PERIOD      1   STEP        4
 -----------------------------------------------
   NUMBER   CELLID                    RATE      
 -----------------------------------------------
     1      (4,1,1)               2.18268883E-03
     2      (5,1,1)               9.90599536E-04
     3      (6,1,1)               9.86685222E-04
     4      (7,1,1)               9.84646705E-04
     5      (8,1,1)               9.83608046E-04
     6      (9,1,1)               9.83103688E-04
     7      (10,1,1)              9.82899832E-04
 -----------------------------------------------



1
  CONCENTRATION IN LAYER   1 AT END OF TIME STEP   4 IN STRESS PERIOD    1
  ---------------------------------------------------------------------------

                1               2               3               4               5               6               7               8               9              10
               11              12              13              14              15              16              17              18              19              20
               21              22              23              24              25
 ................................................................................................................................................................
   1  *************** *************** *************** *************** *************** *************** *************** *************** *************** ***************
      *************** *************** *************** *************** *************** *************** *************** *************** *************** ***************
      *************** *************** *************** *************** ***************
1
  CONCENTRATION IN LAYER   2 AT END OF TIME STEP   4 IN STRESS PERIOD    1
  ---------------------------------------------------------------------------

                1               2               3               4               5               6               7               8               9              10
               11              12              13              14              15              16              17              18              19              20
               21              22              23              24              25
 ................................................................................................................................................................
   1  *************** *************** *************** *************** *************** *************** *************** *************** *************** ***************
      *************** *************** *************** *************** *************** *************** *************** *************** *************** ***************
      *************** *************** *************** *************** ***************
1
  CONCENTRATION IN LAYER   3 AT END OF TIME STEP   4 IN STRESS PERIOD    1
  ---------------------------------------------------------------------------

                1               2               3               4               5               6               7               8               9              10
               11              12              13              14              15              16              17              18              19              20
               21              22              23              24              25
 ................................................................................................................................................................
   1  *************** *************** *************** *************** *************** *************** *************** *************** *************** ***************
      *************** *************** *************** *************** *************** *************** *************** *************** *************** ***************
      *************** *************** *************** *************** ***************
1
  CONCENTRATION IN LAYER   4 AT END OF TIME STEP   4 IN STRESS PERIOD    1
  ---------------------------------------------------------------------------

                1               2               3               4               5               6               7               8               9              10
               11              12              13              14              15              16              17              18              19              20
               21              22              23              24              25
 ................................................................................................................................................................
   1  *************** *************** *************** *************** *************** *************** *************** *************** *************** ***************
      *************** *************** *************** *************** *************** *************** *************** *************** *************** ***************
      *************** *************** *************** *************** ***************
1
  CONCENTRATION IN LAYER   5 AT END OF TIME STEP   4 IN STRESS PERIOD    1
  ---------------------------------------------------------------------------

                1               2               3               4               5               6               7               8               9              10
               11              12              13              14              15              16              17              18              19              20
               21              22              23              24              25
 ................................................................................................................................................................
   1  *************** *************** *************** *************** *************** *************** *************** *************** *************** ***************
      *************** *************** *************** *************** *************** *************** *************** *************** *************** ***************
      *************** *************** *************** *************** ***************
1
  CONCENTRATION IN LAYER   6 AT END OF TIME STEP   4 IN STRESS PERIOD    1
  ---------------------------------------------------------------------------

                1               2               3               4               5               6               7               8               9              10
               11              12              13              14              15              16              17              18              19              20
               21              22              23              24              25
 ................................................................................................................................................................
   1  *************** *************** *************** *************** *************** *************** *************** *************** *************** ***************
      *************** *************** *************** *************** *************** *************** *************** *************** *************** ***************
      *************** *************** *************** *************** ***************
1
  CONCENTRATION IN LAYER   7 AT END OF TIME STEP   4 IN STRESS PERIOD    1
  ---------------------------------------------------------------------------

                1               2               3               4               5               6               7               8               9              10
               11              12              13              14              15              16              17              18              19              20
               21              22              23              24              25
 ................................................................................................................................................................
   1  *************** *************** *************** *************** *************** *************** *************** *************** *************** ***************
      *************** *************** *************** *************** *************** *************** *************** *************** *************** ***************
      *************** *************** *************** *************** ***************
1
  CONCENTRATION IN LAYER   8 AT END OF TIME STEP   4 IN STRESS PERIOD    1
  ---------------------------------------------------------------------------

                1               2               3               4               5               6               7               8               9              10
               11              12              13              14              15              16              17              18              19              20
               21              22              23              24              25
 ................................................................................................................................................................
   1  *************** *************** *************** *************** *************** *************** *************** *************** *************** ***************
      *************** *************** *************** *************** *************** *************** *************** *************** *************** ***************
      *************** *************** *************** *************** ***************
1
  CONCENTRATION IN LAYER   9 AT END OF TIME STEP   4 IN STRESS PERIOD    1
  ---------------------------------------------------------------------------

                1               2               3               4               5               6               7               8               9              10
               11              12              13              14              15              16              17              18              19              20
               21              22              23              24              25
 ................................................................................................................................................................
   1  *************** *************** *************** *************** *************** *************** *************** *************** *************** ***************
      *************** *************** *************** *************** *************** *************** *************** *************** *************** ***************
      *************** *************** *************** *************** ***************
1
  CONCENTRATION IN LAYER  10 AT END OF TIME STEP   4 IN STRESS PERIOD    1
  ---------------------------------------------------------------------------

                1               2               3               4               5               6               7               8               9              10
               11              12              13              14              15              16              17              18              19              20
               21              22              23              24              25
 ................................................................................................................................................................
   1  *************** *************** *************** *************** *************** *************** *************** *************** *************** ***************
      *************** *************** *************** *************** *************** *************** *************** *************** *************** ***************
      *************** *************** *************** *************** ***************

 CONCENTRATION WILL BE SAVED ON UNIT 2091 AT END OF TIME STEP    4, STRESS PERIOD    1


  MASS BUDGET FOR ENTIRE MODEL AT END OF TIME STEP    4, STRESS PERIOD   1
  ---------------------------------------------------------------------------------------------------

     CUMULATIVE MASS      M       RATES FOR THIS TIME STEP      M/T          PACKAGE NAME    
     ------------------                 ------------------------                     ----------------

           IN:                                      IN:
           ---                                      ---
     STORAGE-AQUEOUS =       5.6241E-02       STORAGE-AQUEOUS =       1.1182E-03     MST                              
                 CHD =       2.4502E-02                   CHD =       6.1256E-04     SSM_CHD                          
                 CNC =           0.3123                   CNC =       8.0942E-03     CNC                              

            TOTAL IN =           0.3930              TOTAL IN =       9.8250E-03

          OUT:                                     OUT:
          ----                                     ----
     STORAGE-AQUEOUS =       2.9525E-08       STORAGE-AQUEOUS =           0.0000     MST                              
                 CHD =           0.3930                   CHD =       9.8250E-03     SSM_CHD                          
                 CNC =           0.0000                   CNC =           0.0000     CNC                              

           TOTAL OUT =           0.3930             TOTAL OUT =       9.8250E-03

            IN - OUT =      -1.2249E-08              IN - OUT =      -2.4423E-10

 PERCENT DISCREPANCY =          -0.00     PERCENT DISCREPANCY =          -0.00




         TIME SUMMARY AT END OF TIME STEP    4 IN STRESS PERIOD    1
                    SECONDS     MINUTES      HOURS       DAYS        YEARS
                    -----------------------------------------------------------
   TIME STEP LENGTH 8.64000E+05  14400.      240.00      10.000     2.73785E-02
 STRESS PERIOD TIME 3.45600E+06  57600.      960.00      40.000     0.10951    
         TOTAL TIME 3.45600E+06  57600.      960.00      40.000     0.10951    


end timestep


start timestep kper="1" kstp="5" mode="normal"

 UBDSV06 SAVING  SOURCE-SINK MIX IN MODEL MN               PACKAGE MN              CONNECTED TO MODEL MN               PACKAGE SSM              ON UNIT   2090 AT TIME STEP      5, STRESS PERIOD      1
 UBDSV06 SAVING              CNC IN MODEL MN               PACKAGE MN              CONNECTED TO MODEL MN               PACKAGE CNC              ON UNIT   2090 AT TIME STEP      5, STRESS PERIOD      1

 SSM PACKAGE (SSM) FLOW RATES   PERIOD      1   STEP        5
 ------------------------------------------------------------------------------------------------
   NUMBER   CELLID                   BOUND Q        SSM CONC          RATE         PACKAGE NAME  
 ------------------------------------------------------------------------------------------------
     1      (1,1,1)               2.08333321E-02  9.80093000E-03  2.04186030E-04       CHD       
     2      (2,1,1)               2.08333321E-02  9.80093000E-03  2.04186030E-04       CHD       
     3      (3,1,1)               2.08333321E-02  9.80093000E-03  2.04186030E-04       CHD       
     4      (4,1,1)               0.0000000       0.0000000       0.0000000            CHD       
     5      (5,1,1)               0.0000000       0.0000000       0.0000000            CHD       
     6      (6,1,1)               0.0000000       0.0000000       0.0000000            CHD       
     7      (7,1,1)               0.0000000       0.0000000       0.0000000            CHD       
     8      (8,1,1)               0.0000000       0.0000000       0.0000000            CHD       
     9      (9,1,1)               0.0000000       0.0000000       0.0000000            CHD       
     10     (10,1,1)              0.0000000       0.0000000       0.0000000            CHD       
     11     (1,1,25)             -2.08333353E-02  4.71601299E-02 -9.82502801E-04       CHD       
[...]
               21              22              23              24              25
 ................................................................................................................................................................
   1  *************** *************** *************** *************** *************** *************** *************** *************** *************** ***************
      *************** *************** *************** *************** *************** *************** *************** *************** *************** ***************
      *************** *************** *************** *************** ***************

 CONCENTRATION WILL BE SAVED ON UNIT 2091 AT END OF TIME STEP  199, STRESS PERIOD    1


  MASS BUDGET FOR ENTIRE MODEL AT END OF TIME STEP  199, STRESS PERIOD   1
  ---------------------------------------------------------------------------------------------------

     CUMULATIVE MASS      M       RATES FOR THIS TIME STEP      M/T          PACKAGE NAME    
     ------------------                 ------------------------                     ----------------

           IN:                                      IN:
           ---                                      ---
     STORAGE-AQUEOUS =           1.1018       STORAGE-AQUEOUS =       1.0597E-04     MST                              
                 CHD =           1.2190                   CHD =       6.1256E-04     SSM_CHD                          
                 CNC =          16.9466                   CNC =       8.5407E-03     CNC                              

            TOTAL IN =          19.2674              TOTAL IN =       9.2592E-03

          OUT:                                     OUT:
          ----                                     ----
     STORAGE-AQUEOUS =       2.9525E-08       STORAGE-AQUEOUS =           0.0000     MST                              
                 CHD =          19.2674                   CHD =       9.2592E-03     SSM_CHD                          
                 CNC =           0.0000                   CNC =           0.0000     CNC                              

           TOTAL OUT =          19.2674             TOTAL OUT =       9.2592E-03

            IN - OUT =      -1.5814E-07              IN - OUT =       1.1801E-08

 PERCENT DISCREPANCY =          -0.00     PERCENT DISCREPANCY =           0.00




         TIME SUMMARY AT END OF TIME STEP  199 IN STRESS PERIOD    1
                    SECONDS     MINUTES      HOURS       DAYS        YEARS
                    -----------------------------------------------------------
   TIME STEP LENGTH 8.64000E+05  14400.      240.00      10.000     2.73785E-02
 STRESS PERIOD TIME 1.71936E+08 2.86560E+06  47760.      1990.0      5.4483    
         TOTAL TIME 1.71936E+08 2.86560E+06  47760.      1990.0      5.4483    


end timestep


start timestep kper="1" kstp="200" mode="normal"

 UBDSV06 SAVING  SOURCE-SINK MIX IN MODEL MN               PACKAGE MN              CONNECTED TO MODEL MN               PACKAGE SSM              ON UNIT   2090 AT TIME STEP    200, STRESS PERIOD      1
 UBDSV06 SAVING              CNC IN MODEL MN               PACKAGE MN              CONNECTED TO MODEL MN               PACKAGE CNC              ON UNIT   2090 AT TIME STEP    200, STRESS PERIOD      1

 SSM PACKAGE (SSM) FLOW RATES   PERIOD      1   STEP      200
 ------------------------------------------------------------------------------------------------
   NUMBER   CELLID                   BOUND Q        SSM CONC          RATE         PACKAGE NAME  
 ------------------------------------------------------------------------------------------------
     1      (1,1,1)               2.08333330E-02  9.80093000E-03  2.04186038E-04       CHD       
     2      (2,1,1)               2.08333330E-02  9.80093000E-03  2.04186038E-04       CHD       
     3      (3,1,1)               2.08333330E-02  9.80093000E-03  2.04186038E-04       CHD       
     4      (4,1,1)               0.0000000       0.0000000       0.0000000            CHD       
     5      (5,1,1)               0.0000000       0.0000000       0.0000000            CHD       
     6      (6,1,1)               0.0000000       0.0000000       0.0000000            CHD       
     7      (7,1,1)               0.0000000       0.0000000       0.0000000            CHD       
     8      (8,1,1)               0.0000000       0.0000000       0.0000000            CHD       
     9      (9,1,1)               0.0000000       0.0000000       0.0000000            CHD       
     10     (10,1,1)              0.0000000       0.0000000       0.0000000            CHD       
     11     (1,1,25)             -2.08333337E-02  4.44276773E-02 -9.25576625E-04       CHD       
     12     (2,1,25)             -2.08333337E-02  4.44276803E-02 -9.25576687E-04       CHD       
     13     (3,1,25)             -2.08333337E-02  4.44276836E-02 -9.25576757E-04       CHD       
     14     (4,1,25)             -2.08333337E-02  4.44276869E-02 -9.25576825E-04       CHD       
     15     (5,1,25)             -2.08333337E-02  4.44276902E-02 -9.25576894E-04       CHD       
     16     (6,1,25)             -2.08333337E-02  4.44276937E-02 -9.25576966E-04       CHD       
     17     (7,1,25)             -2.08333337E-02  4.44276976E-02 -9.25577047E-04       CHD       
     18     (8,1,25)             -2.08333337E-02  4.44277021E-02 -9.25577142E-04       CHD       
     19     (9,1,25)             -2.08333337E-02  4.44277077E-02 -9.25577258E-04       CHD       
     20     (10,1,25)            -2.08333337E-02  4.44277148E-02 -9.25577406E-04       CHD       
 ------------------------------------------------------------------------------------------------




 CNC PACKAGE (CNC) FLOW RATES   PERIOD      1   STEP      200
 -----------------------------------------------
   NUMBER   CELLID                    RATE      
 -----------------------------------------------
     1      (4,1,1)               2.54275335E-03
     2      (5,1,1)               1.01599772E-03
     3      (6,1,1)               1.00549449E-03
     4      (7,1,1)               9.98755786E-04
     5      (8,1,1)               9.94556446E-04
     6      (9,1,1)               9.92123108E-04
     7      (10,1,1)              9.91008385E-04
 -----------------------------------------------



1
  CONCENTRATION IN LAYER   1 AT END OF TIME STEP 200 IN STRESS PERIOD    1
  ---------------------------------------------------------------------------

                1               2               3               4               5               6               7               8               9              10
               11              12              13              14              15              16              17              18              19              20
               21              22              23              24              25
 ................................................................................................................................................................
   1  *************** *************** *************** *************** *************** *************** *************** *************** *************** ***************
      *************** *************** *************** *************** *************** *************** *************** *************** *************** ***************
      *************** *************** *************** *************** ***************
1
  CONCENTRATION IN LAYER   2 AT END OF TIME STEP 200 IN STRESS PERIOD    1
  ---------------------------------------------------------------------------

                1               2               3               4               5               6               7               8               9              10
               11              12              13              14              15              16              17              18              19              20
               21              22              23              24              25
 ................................................................................................................................................................
   1  *************** *************** *************** *************** *************** *************** *************** *************** *************** ***************
      *************** *************** *************** *************** *************** *************** *************** *************** *************** ***************
      *************** *************** *************** *************** ***************
1
  CONCENTRATION IN LAYER   3 AT END OF TIME STEP 200 IN STRESS PERIOD    1
  ---------------------------------------------------------------------------

                1               2               3               4               5               6               7               8               9              10
               11              12              13              14              15              16              17              18              19              20
               21              22              23              24              25
 ................................................................................................................................................................
   1  *************** *************** *************** *************** *************** *************** *************** *************** *************** ***************
      *************** *************** *************** *************** *************** *************** *************** *************** *************** ***************
      *************** *************** *************** *************** ***************
1
  CONCENTRATION IN LAYER   4 AT END OF TIME STEP 200 IN STRESS PERIOD    1
  ---------------------------------------------------------------------------

                1               2               3               4               5               6               7               8               9              10
               11              12              13              14              15              16              17              18              19              20
               21              22              23              24              25
 ................................................................................................................................................................
   1  *************** *************** *************** *************** *************** *************** *************** *************** *************** ***************
      *************** *************** *************** *************** *************** *************** *************** *************** *************** ***************
      *************** *************** *************** *************** ***************
1
  CONCENTRATION IN LAYER   5 AT END OF TIME STEP 200 IN STRESS PERIOD    1
  ---------------------------------------------------------------------------

                1               2               3               4               5               6               7               8               9              10
               11              12              13              14              15              16              17              18              19              20
               21              22              23              24              25
 ................................................................................................................................................................
   1  *************** *************** *************** *************** *************** *************** *************** *************** *************** ***************
      *************** *************** *************** *************** *************** *************** *************** *************** *************** ***************
      *************** *************** *************** *************** ***************
1
  CONCENTRATION IN LAYER   6 AT END OF TIME STEP 200 IN STRESS PERIOD    1
  ---------------------------------------------------------------------------

                1               2               3               4               5               6               7               8               9              10
               11              12              13              14              15              16              17              18              19              20
               21              22              23              24              25
 ................................................................................................................................................................
   1  *************** *************** *************** *************** *************** *************** *************** *************** *************** ***************
      *************** *************** *************** *************** *************** *************** *************** *************** *************** ***************
      *************** *************** *************** *************** ***************
1
  CONCENTRATION IN LAYER   7 AT END OF TIME STEP 200 IN STRESS PERIOD    1
  ---------------------------------------------------------------------------

                1               2               3               4               5               6               7               8               9              10
               11              12              13              14              15              16              17              18              19              20
               21              22              23              24              25
 ................................................................................................................................................................
   1  *************** *************** *************** *************** *************** *************** *************** *************** *************** ***************
      *************** *************** *************** *************** *************** *************** *************** *************** *************** ***************
      *************** *************** *************** *************** ***************
1
  CONCENTRATION IN LAYER   8 AT END OF TIME STEP 200 IN STRESS PERIOD    1
  ---------------------------------------------------------------------------

                1               2               3               4               5               6               7               8               9              10
               11              12              13              14              15              16              17              18              19              20
               21              22              23              24              25
 ................................................................................................................................................................
   1  *************** *************** *************** *************** *************** *************** *************** *************** *************** ***************
      *************** *************** *************** *************** *************** *************** *************** *************** *************** ***************
      *************** *************** *************** *************** ***************
1
  CONCENTRATION IN LAYER   9 AT END OF TIME STEP 200 IN STRESS PERIOD    1
  ---------------------------------------------------------------------------

                1               2               3               4               5               6               7               8               9              10
               11              12              13              14              15              16              17              18              19              20
               21              22              23              24              25
 ................................................................................................................................................................
   1  *************** *************** *************** *************** *************** *************** *************** *************** *************** ***************
      *************** *************** *************** *************** *************** *************** *************** *************** *************** ***************
      *************** *************** *************** *************** ***************
1
  CONCENTRATION IN LAYER  10 AT END OF TIME STEP 200 IN STRESS PERIOD    1
  ---------------------------------------------------------------------------

                1               2               3               4               5               6               7               8               9              10
               11              12              13              14              15              16              17              18              19              20
               21              22              23              24              25
 ................................................................................................................................................................
   1  *************** *************** *************** *************** *************** *************** *************** *************** *************** ***************
      *************** *************** *************** *************** *************** *************** *************** *************** *************** ***************
      *************** *************** *************** *************** ***************

 CONCENTRATION WILL BE SAVED ON UNIT 2091 AT END OF TIME STEP  200, STRESS PERIOD    1


  MASS BUDGET FOR ENTIRE MODEL AT END OF TIME STEP  200, STRESS PERIOD   1
  ---------------------------------------------------------------------------------------------------

     CUMULATIVE MASS      M       RATES FOR THIS TIME STEP      M/T          PACKAGE NAME    
     ------------------                 ------------------------                     ----------------

           IN:                                      IN:
           ---                                      ---
     STORAGE-AQUEOUS =           1.1028       STORAGE-AQUEOUS =       1.0253E-04     MST                              
                 CHD =           1.2251                   CHD =       6.1256E-04     SSM_CHD                          
                 CNC =          17.0320                   CNC =       8.5407E-03     CNC                              

            TOTAL IN =          19.3599              TOTAL IN =       9.2558E-03

          OUT:                                     OUT:
          ----                                     ----
     STORAGE-AQUEOUS =       2.9525E-08       STORAGE-AQUEOUS =           0.0000     MST                              
                 CHD =          19.3599                   CHD =       9.2558E-03     SSM_CHD                          
                 CNC =           0.0000                   CNC =           0.0000     CNC                              

           TOTAL OUT =          19.3599             TOTAL OUT =       9.2558E-03

            IN - OUT =      -4.2044E-08              IN - OUT =       1.1610E-08

 PERCENT DISCREPANCY =          -0.00     PERCENT DISCREPANCY =           0.00




         TIME SUMMARY AT END OF TIME STEP  200 IN STRESS PERIOD    1
                    SECONDS     MINUTES      HOURS       DAYS        YEARS
                    -----------------------------------------------------------
   TIME STEP LENGTH 8.64000E+05  14400.      240.00      10.000     2.73785E-02
 STRESS PERIOD TIME 1.72800E+08 2.88000E+06  48000.      2000.0      5.4757    
         TOTAL TIME 1.72800E+08 2.88000E+06  48000.      2000.0      5.4757    


end timestep

