                                   MODFLOW 6
                U.S. GEOLOGICAL SURVEY MODULAR HYDROLOGIC MODEL
                       GROUNDWATER TRANSPORT MODEL (GWT)
                VERSION 6.5.0.dev0+prt (preliminary) 10/07/2023
                               ***DEVELOP MODE***

   MODFLOW 6 compiled Oct 07 2023 02:19:02 with Intel(R) Fortran Intel(R) 64
   Compiler Classic for applications running on Intel(R) 64, Version 2021.7.0
                             Build 20220726_000000

This software is preliminary or provisional and is subject to 
revision. It is being provided to meet the need for timely best 
science. The software has not received final approval by the U.S. 
Geological Survey (USGS). No warranty, expressed or implied, is made 
by the USGS or the U.S. Government as to the functionality of the 
software and related material nor shall the fact of release 
constitute any such warranty. The software is provided on the 
condition that neither the USGS nor the U.S. Government shall be held 
liable for any damages resulting from the authorized or unauthorized 
use of the software.


As a work of the United States Government, this USGS product is 
in the public domain within the United States. You can copy, 
modify, distribute, and perform the work, even for commercial 
purposes, all without asking permission. Additionally, USGS 
waives copyright and related rights in the work worldwide 
through CC0 1.0 Universal Public Domain Dedication 
(https://creativecommons.org/publicdomain/zero/1.0/).

The following GNU Lesser General Public License (LGPL) libraries
are used in this USGS product:

    SPARSKIT version 2.0
      ilut, luson, and qsplit 
      (https://www-users.cse.umn.edu/~saad/software/SPARSKIT/)

    RCM - Reverse Cuthill McKee Ordering
      (https://people.math.sc.edu/Burkardt/f_src/rcm/rcm.html)

    BLAS - Basic Linear Algebra Subprograms Level 1
      (https://people.math.sc.edu/Burkardt/f_src/blas1_d/blas1_d.html)

    SPARSEKIT - Sparse Matrix Utility Package
      amux, dperm, dvperm, rperm, and cperm
      (https://people.sc.fsu.edu/~jburkardt/f77_src/sparsekit/sparsekit.html)

The following BSD-3 License libraries are used in this USGS product:

    Modern Fortran DAG Library
      Copyright (c) 2018, Jacob Williams
      All rights reserved.
      (https://github.com/jacobwilliams/daglib)

MODFLOW 6 compiler options: /Isrc\libmf6core.a.p /Isrc /I..\src
/Isrc\libmf6_external.a.p /MTd /nologo /warn:general /warn:truncated_source
/stand:f08 /Zi /traceback /O2 /fpe:0 /heap-arrays:0 /traceback /fpp
/Qdiag-disable:7416 /Qdiag-disable:7025 /Qdiag-disable:5268
/Fdsrc\libmf6core.a.p\Utilities_compilerversion.F90.pdb
/module:src\libmf6core.a.p
/Fosrc/libmf6core.a.p/Utilities_compilerversion.F90.obj /c

System command used to initiate simulation:
c:\Users\portega\anaconda3\envs\mf6rtm\python.exe -m ipykernel_launcher --f=c:\Users\portega\AppData\Roaming\jupyter\runtime\kernel-v2-17404w7nug58txkWt.json

MODFLOW was compiled using uniform precision.

Real Variables
  KIND: 8
  TINY (smallest non-zero value):    2.225074-308
  HUGE (largest value):    1.797693+308
  PRECISION: 15
  SIZE IN BITS: 64

Integer Variables
  KIND: 4
  HUGE (largest value): 2147483647
  SIZE IN BITS: 32

Long Integer Variables
  KIND: 8
  HUGE (largest value): 9223372036854775807
  SIZE IN BITS: 64

Logical Variables
  KIND: 4
  SIZE IN BITS: 32
 
 NAMEFILE OPTIONS:
 END NAMEFILE OPTIONS:

 DIS -- STRUCTURED GRID DISCRETIZATION PACKAGE, VERSION 2 : 3/27/2014 - INPUT READ FROM MEMPATH: __INPUT__/NA/DIS                                  


 DSP-- DISPERSION PACKAGE, VERSION 1, 1/24/2018 INPUT READ FROM MEMPATH: __INPUT__/NA/DSP                                  


 Setting Discretization Options
    Model length unit [0=UND, 1=FEET, 2=METERS, 3=CENTIMETERS] set as 2
 End Setting Discretization Options

 Setting Discretization Dimensions
    NLAY = 10
    NROW = 1
    NCOL = 25
 End Setting Discretization Dimensions

 Setting Discretization Griddata
    DELR set from input file
    DELC set from input file
    TOP set from input file
    BOTM set from input file
    IDOMAIN set from input file
 End Setting Discretization Griddata


 FMI -- FLOW MODEL INTERFACE,' VERSION 2, 8/17/2023
  FLOWS PROVIDED BY A GWF MODEL IN THIS SIMULATION

 ADV-- ADVECTION PACKAGE, VERSION 1, 8/25/2017 INPUT READ FROM UNIT 1744


 # File generated by Flopy version 3.5.0.dev0 on 07/12/2024 at 15:45:50.
 PROCESSING ADVECTION OPTIONS
    ADVECTION WEIGHTING SCHEME HAS BEEN SET TO: TVD
 END OF ADVECTION OPTIONS
 Setting DSP Options
    XT3D formulation [0=INACTIVE, 1=ACTIVE, 3=ACTIVE RHS] set to: 0
 End Setting DSP Options

 Setting DSP Griddata
    ALH set from input file
    ATH1 set from input file
    ATV set from input file
 End Setting DSP Griddata


 CNC   -- CNC PACKAGE, VERSION 8, 2/22/2014 INPUT READ FROM UNIT 1778
 # File generated by Flopy version 3.5.0.dev0 on 07/12/2024 at 15:45:50.

 PROCESSING CNC OPTIONS
    CNC FLOWS WILL BE PRINTED TO LISTING FILE.
    FLOWS WILL BE SAVED TO BUDGET FILE SPECIFIED IN OUTPUT CONTROL
 END OF CNC OPTIONS

 PROCESSING CNC DIMENSIONS
    MAXBOUND =       7
 END OF CNC DIMENSIONS

 IC -- INITIAL CONDITIONS PACKAGE, VERSION 8, 3/28/2015 INPUT READ FROM UNIT 1742
 # File generated by Flopy version 3.5.0.dev0 on 07/12/2024 at 15:45:50.
 PROCESSING GRIDDATA

 OPENED Na.ic_strt_layer1.txt
 FILE TYPE:OPEN/CLOSE   UNIT 2092   STATUS:OLD                 
 FORMAT:FORMATTED              ACCESS:SEQUENTIAL          
 ACTION:READ                


 OPENED Na.ic_strt_layer2.txt
 FILE TYPE:OPEN/CLOSE   UNIT 2093   STATUS:OLD                 
 FORMAT:FORMATTED              ACCESS:SEQUENTIAL          
 ACTION:READ                


 OPENED Na.ic_strt_layer3.txt
 FILE TYPE:OPEN/CLOSE   UNIT 2094   STATUS:OLD                 
 FORMAT:FORMATTED              ACCESS:SEQUENTIAL          
 ACTION:READ                


 OPENED Na.ic_strt_layer4.txt
 FILE TYPE:OPEN/CLOSE   UNIT 2095   STATUS:OLD                 
 FORMAT:FORMATTED              ACCESS:SEQUENTIAL          
 ACTION:READ                


 OPENED Na.ic_strt_layer5.txt
 FILE TYPE:OPEN/CLOSE   UNIT 2096   STATUS:OLD                 
 FORMAT:FORMATTED              ACCESS:SEQUENTIAL          
 ACTION:READ                


 OPENED Na.ic_strt_layer6.txt
 FILE TYPE:OPEN/CLOSE   UNIT 2097   STATUS:OLD                 
 FORMAT:FORMATTED              ACCESS:SEQUENTIAL          
 ACTION:READ                


 OPENED Na.ic_strt_layer7.txt
 FILE TYPE:OPEN/CLOSE   UNIT 2098   STATUS:OLD                 
 FORMAT:FORMATTED              ACCESS:SEQUENTIAL          
 ACTION:READ                


 OPENED Na.ic_strt_layer8.txt
 FILE TYPE:OPEN/CLOSE   UNIT 2099   STATUS:OLD                 
 FORMAT:FORMATTED              ACCESS:SEQUENTIAL          
 ACTION:READ                


 OPENED Na.ic_strt_layer9.txt
 FILE TYPE:OPEN/CLOSE   UNIT 2100   STATUS:OLD                 
 FORMAT:FORMATTED              ACCESS:SEQUENTIAL          
 ACTION:READ                


 OPENED Na.ic_strt_layer10.txt
 FILE TYPE:OPEN/CLOSE   UNIT 2101   STATUS:OLD                 
 FORMAT:FORMATTED              ACCESS:SEQUENTIAL          
 ACTION:READ                

 END PROCESSING GRIDDATA

 MST -- MOBILE STORAGE AND TRANSFER PACKAGE, VERSION 1, 7/29/2020 INPUT READ FROM UNIT 1743


 # File generated by Flopy version 3.5.0.dev0 on 07/12/2024 at 15:45:50.
 PROCESSING MOBILE STORAGE AND TRANSFER OPTIONS
 END OF MOBILE STORAGE AND TRANSFER OPTIONS
 PROCESSING GRIDDATA

 OPENED Na.mst_porosity.txt
 FILE TYPE:OPEN/CLOSE   UNIT 2102   STATUS:OLD                 
 FORMAT:FORMATTED              ACCESS:SEQUENTIAL          
 ACTION:READ                

 END PROCESSING GRIDDATA

 SSM -- SOURCE-SINK MIXING PACKAGE, VERSION 1, 8/25/2017 INPUT READ FROM UNIT 1776


 # File generated by Flopy version 3.5.0.dev0 on 07/12/2024 at 15:45:50.
 PROCESSING SSM OPTIONS
    SSM FLOW INFORMATION WILL BE PRINTED TO LISTING FILE WHENEVER ICBCFL IS NOT ZERO.
    CELL-BY-CELL FLOW INFORMATION WILL BE SAVED TO BINARY FILE WHENEVER ICBCFL IS NOT ZERO.
 END OF SSM OPTIONS

 OPENED Na.ssm_sources.txt
 FILE TYPE:OPEN/CLOSE   UNIT 2103   STATUS:OLD                 
 FORMAT:FORMATTED              ACCESS:SEQUENTIAL          
 ACTION:READ                

 PROCESSING SOURCES
 AUX SOURCE DETECTED.
    USING AUX COLUMN 12 IN PACKAGE CHD
 END PROCESSING SOURCES
 OPTIONAL FILEINPUT BLOCK NOT FOUND.  CONTINUING.
      THE LAST TIME STEP WILL BE PRINTED
      THE LAST TIME STEP WILL BE PRINTED
 # File generated by Flopy version 3.5.0.dev0 on 07/12/2024 at 15:45:50.

 PROCESSING OC OPTIONS

    BUDGET INFORMATION WILL BE WRITTEN TO:
      UNIT NUMBER: 2104
      FILE NAME: Na.cbb

 OPENED Na.cbb
 FILE TYPE:DATA(BINARY)   UNIT 2104   STATUS:REPLACE             
 FORMAT:UNFORMATTED            ACCESS:STREAM              
 ACTION:READWRITE           

    CONCENTRATION INFORMATION WILL BE WRITTEN TO:
      UNIT NUMBER: 2105
      FILE NAME: Na.ucn

 OPENED Na.ucn
 FILE TYPE:DATA(BINARY)   UNIT 2105   STATUS:REPLACE             
 FORMAT:UNFORMATTED            ACCESS:STREAM              
 ACTION:READWRITE           

 END OF OC OPTIONS

start timestep kper="1" kstp="1" mode="normal"


 BEGIN READING OUTPUT CONTROL FOR STRESS PERIOD 1
      ALL TIME STEPS WILL BE SAVED
      ALL TIME STEPS WILL BE SAVED
      ALL TIME STEPS WILL BE PRINTED
      ALL TIME STEPS WILL BE PRINTED

 END READING OUTPUT CONTROL FOR STRESS PERIOD 1

 OPENED Na.cnc_stress_period_data_1.txt
 FILE TYPE:OPEN/CLOSE   UNIT 2145   STATUS:OLD                 
 FORMAT:FORMATTED              ACCESS:SEQUENTIAL          
 ACTION:READ                

 UBDSV06 SAVING  SOURCE-SINK MIX IN MODEL NA               PACKAGE NA              CONNECTED TO MODEL NA               PACKAGE SSM              ON UNIT   2104 AT TIME STEP      1, STRESS PERIOD      1
 UBDSV06 SAVING              CNC IN MODEL NA               PACKAGE NA              CONNECTED TO MODEL NA               PACKAGE CNC              ON UNIT   2104 AT TIME STEP      1, STRESS PERIOD      1

 SSM PACKAGE (SSM) FLOW RATES   PERIOD      1   STEP        1
 ------------------------------------------------------------------------------------------------
   NUMBER   CELLID                   BOUND Q        SSM CONC          RATE         PACKAGE NAME  
 ------------------------------------------------------------------------------------------------
     1      (1,1,1)               2.08333361E-02  1.3858898       2.88727078E-02       CHD       
     2      (2,1,1)               2.08333361E-02  1.3858898       2.88727078E-02       CHD       
     3      (3,1,1)               2.08333361E-02  1.3858898       2.88727078E-02       CHD       
     4      (4,1,1)               0.0000000       0.0000000       0.0000000            CHD       
     5      (5,1,1)               0.0000000       0.0000000       0.0000000            CHD       
     6      (6,1,1)               0.0000000       0.0000000       0.0000000            CHD       
     7      (7,1,1)               0.0000000       0.0000000       0.0000000            CHD       
     8      (8,1,1)               0.0000000       0.0000000       0.0000000            CHD       
     9      (9,1,1)               0.0000000       0.0000000       0.0000000            CHD       
     10     (10,1,1)              0.0000000       0.0000000       0.0000000            CHD       
     11     (1,1,25)             -2.08333402E-02  1.2961559      -2.70032573E-02       CHD       
     12     (2,1,25)             -2.08333402E-02  1.2961559      -2.70032573E-02       CHD       
     13     (3,1,25)             -2.08333402E-02  1.2961559      -2.70032573E-02       CHD       
     14     (4,1,25)             -2.08333403E-02  1.2961559      -2.70032573E-02       CHD       
     15     (5,1,25)             -2.08333403E-02  1.2961559      -2.70032573E-02       CHD       
     16     (6,1,25)             -2.08333403E-02  1.2961559      -2.70032573E-02       CHD       
     17     (7,1,25)             -2.08333403E-02  1.2961559      -2.70032574E-02       CHD       
     18     (8,1,25)             -2.08333403E-02  1.2961559      -2.70032574E-02       CHD       
     19     (9,1,25)             -2.08333403E-02  1.2961559      -2.70032574E-02       CHD       
     20     (10,1,25)            -2.08333403E-02  1.2961559      -2.70032573E-02       CHD       
 ------------------------------------------------------------------------------------------------




 CNC PACKAGE (CNC) FLOW RATES   PERIOD      1   STEP        1
 -----------------------------------------------
   NUMBER   CELLID                    RATE      
 -----------------------------------------------
     1      (4,1,1)               2.56805128E-02
     2      (5,1,1)               2.70010415E-02
     3      (6,1,1)               2.70023561E-02
     4      (7,1,1)               2.70028875E-02
     5      (8,1,1)               2.70031022E-02
     6      (9,1,1)               2.70031874E-02
     7      (10,1,1)              2.70032172E-02
 -----------------------------------------------



1
  CONCENTRATION IN LAYER   1 AT END OF TIME STEP   1 IN STRESS PERIOD    1
  ---------------------------------------------------------------------------

                1               2               3               4               5               6               7               8               9              10
               11              12              13              14              15              16              17              18              19              20
               21              22              23              24              25
 ................................................................................................................................................................
   1  1.305947719     1.297851024     1.296315425     1.296170004     1.296157197     1.296156047     1.296155931     1.296155918     1.296155921     1.296155925    
      1.296155926     1.296155922     1.296155917     1.296155915     1.296155916     1.296155917     1.296155916     1.296155915     1.296155915     1.296155915    
      1.296155916     1.296155917     1.296155918     1.296155919     1.296155920    
1
  CONCENTRATION IN LAYER   2 AT END OF TIME STEP   1 IN STRESS PERIOD    1
  ---------------------------------------------------------------------------

                1               2               3               4               5               6               7               8               9              10
               11              12              13              14              15              16              17              18              19              20
               21              22              23              24              25
 ................................................................................................................................................................
   1  1.305039644     1.297641380     1.296297848     1.296168800     1.296157117     1.296156044     1.296155929     1.296155916     1.296155921     1.296155929    
      1.296155929     1.296155923     1.296155915     1.296155912     1.296155913     1.296155914     1.296155914     1.296155912     1.296155911     1.296155912    
      1.296155914     1.296155915     1.296155917     1.296155919     1.296155920    
1
  CONCENTRATION IN LAYER   3 AT END OF TIME STEP   1 IN STRESS PERIOD    1
  ---------------------------------------------------------------------------

                1               2               3               4               5               6               7               8               9              10
               11              12              13              14              15              16              17              18              19              20
               21              22              23              24              25
 ................................................................................................................................................................
   1  1.302478813     1.297198054     1.296267226     1.296166762     1.296156974     1.296156037     1.296155927     1.296155912     1.296155922     1.296155935    
      1.296155935     1.296155924     1.296155911     1.296155907     1.296155909     1.296155911     1.296155910     1.296155908     1.296155906     1.296155907    
      1.296155910     1.296155913     1.296155916     1.296155919     1.296155920    
1
  CONCENTRATION IN LAYER   4 AT END OF TIME STEP   1 IN STRESS PERIOD    1
  ---------------------------------------------------------------------------

                1               2               3               4               5               6               7               8               9              10
               11              12              13              14              15              16              17              18              19              20
               21              22              23              24              25
 ................................................................................................................................................................
   1  1.296155920     1.296575991     1.296236420     1.296164499     1.296156794     1.296156025     1.296155924     1.296155909     1.296155923     1.296155941    
      1.296155940     1.296155925     1.296155907     1.296155902     1.296155906     1.296155909     1.296155907     1.296155904     1.296155902     1.296155903    
      1.296155907     1.296155911     1.296155914     1.296155918     1.296155920    
1
  CONCENTRATION IN LAYER   5 AT END OF TIME STEP   1 IN STRESS PERIOD    1
  ---------------------------------------------------------------------------

                1               2               3               4               5               6               7               8               9              10
               11              12              13              14              15              16              17              18              19              20
               21              22              23              24              25
 ................................................................................................................................................................
   1  1.296155920     1.296325693     1.296203082     1.296162029     1.296156601     1.296156009     1.296155921     1.296155906     1.296155923     1.296155944    
      1.296155944     1.296155925     1.296155906     1.296155900     1.296155904     1.296155908     1.296155906     1.296155902     1.296155899     1.296155901    
      1.296155905     1.296155909     1.296155913     1.296155918     1.296155920    
1
  CONCENTRATION IN LAYER   6 AT END OF TIME STEP   1 IN STRESS PERIOD    1
  ---------------------------------------------------------------------------

                1               2               3               4               5               6               7               8               9              10
               11              12              13              14              15              16              17              18              19              20
               21              22              23              24              25
 ................................................................................................................................................................
   1  1.296155920     1.296224730     1.296181000     1.296159912     1.296156421     1.296155992     1.296155918     1.296155906     1.296155923     1.296155946    
      1.296155945     1.296155926     1.296155905     1.296155900     1.296155904     1.296155908     1.296155906     1.296155902     1.296155899     1.296155900    
      1.296155904     1.296155909     1.296155913     1.296155918     1.296155920    
1
  CONCENTRATION IN LAYER   7 AT END OF TIME STEP   1 IN STRESS PERIOD    1
  ---------------------------------------------------------------------------

                1               2               3               4               5               6               7               8               9              10
               11              12              13              14              15              16              17              18              19              20
               21              22              23              24              25
 ................................................................................................................................................................
   1  1.296155920     1.296183920     1.296168559     1.296158375     1.296156273     1.296155977     1.296155917     1.296155906     1.296155923     1.296155945    
      1.296155944     1.296155926     1.296155906     1.296155901     1.296155905     1.296155909     1.296155907     1.296155902     1.296155900     1.296155901    
      1.296155905     1.296155909     1.296155913     1.296155918     1.296155920    
1
  CONCENTRATION IN LAYER   8 AT END OF TIME STEP   1 IN STRESS PERIOD    1
  ---------------------------------------------------------------------------

                1               2               3               4               5               6               7               8               9              10
               11              12              13              14              15              16              17              18              19              20
               21              22              23              24              25
 ................................................................................................................................................................
   1  1.296155920     1.296167435     1.296162134     1.296157383     1.296156165     1.296155964     1.296155916     1.296155907     1.296155923     1.296155942    
      1.296155942     1.296155925     1.296155907     1.296155902     1.296155906     1.296155910     1.296155908     1.296155904     1.296155902     1.296155903    
      1.296155906     1.296155910     1.296155913     1.296155918     1.296155920    
1
  CONCENTRATION IN LAYER   9 AT END OF TIME STEP   1 IN STRESS PERIOD    1
  ---------------------------------------------------------------------------

                1               2               3               4               5               6               7               8               9              10
               11              12              13              14              15              16              17              18              19              20
               21              22              23              24              25
 ................................................................................................................................................................
   1  1.296155920     1.296160890     1.296159067     1.296156814     1.296156094     1.296155954     1.296155917     1.296155910     1.296155922     1.296155938    
      1.296155938     1.296155925     1.296155910     1.296155906     1.296155909     1.296155912     1.296155910     1.296155907     1.296155905     1.296155906    
      1.296155908     1.296155912     1.296155914     1.296155918     1.296155920    
1
  CONCENTRATION IN LAYER  10 AT END OF TIME STEP   1 IN STRESS PERIOD    1
  ---------------------------------------------------------------------------

                1               2               3               4               5               6               7               8               9              10
               11              12              13              14              15              16              17              18              19              20
               21              22              23              24              25
 ................................................................................................................................................................
   1  1.296155920     1.296158604     1.296157855     1.296156556     1.296156053     1.296155946     1.296155919     1.296155914     1.296155921     1.296155930    
      1.296155930     1.296155923     1.296155914     1.296155911     1.296155913     1.296155915     1.296155914     1.296155912     1.296155911     1.296155912    
      1.296155913     1.296155915     1.296155917     1.296155919     1.296155920    

 CONCENTRATION WILL BE SAVED ON UNIT 2105 AT END OF TIME STEP    1, STRESS PERIOD    1


  MASS BUDGET FOR ENTIRE MODEL AT END OF TIME STEP    1, STRESS PERIOD   1
  ---------------------------------------------------------------------------------------------------

     CUMULATIVE MASS      M       RATES FOR THIS TIME STEP      M/T          PACKAGE NAME    
     ------------------                 ------------------------                     ----------------

           IN:                                      IN:
           ---                                      ---
     STORAGE-AQUEOUS =       1.8740E-06       STORAGE-AQUEOUS =       1.8740E-07     MST                              
                 CHD =           0.8662                   CHD =       8.6618E-02     SSM_CHD                          
                 CNC =           1.8901                   CNC =           0.1890     CNC                              

            TOTAL IN =           2.7563              TOTAL IN =           0.2756

          OUT:                                     OUT:
          ----                                     ----
     STORAGE-AQUEOUS =       4.2820E-02       STORAGE-AQUEOUS =       4.2820E-03     MST                              
                 CHD =           2.7003                   CHD =           0.2700     SSM_CHD                          
                 CNC =       1.3173E-02                   CNC =       1.3173E-03     CNC                              

           TOTAL OUT =           2.7563             TOTAL OUT =           0.2756

            IN - OUT =       2.7139E-09              IN - OUT =       2.7139E-10

 PERCENT DISCREPANCY =           0.00     PERCENT DISCREPANCY =           0.00




         TIME SUMMARY AT END OF TIME STEP    1 IN STRESS PERIOD    1
                    SECONDS     MINUTES      HOURS       DAYS        YEARS
                    -----------------------------------------------------------
   TIME STEP LENGTH 8.64000E+05  14400.      240.00      10.000     2.73785E-02
 STRESS PERIOD TIME 8.64000E+05  14400.      240.00      10.000     2.73785E-02
         TOTAL TIME 8.64000E+05  14400.      240.00      10.000     2.73785E-02


end timestep


start timestep kper="1" kstp="2" mode="normal"

 UBDSV06 SAVING  SOURCE-SINK MIX IN MODEL NA               PACKAGE NA              CONNECTED TO MODEL NA               PACKAGE SSM              ON UNIT   2104 AT TIME STEP      2, STRESS PERIOD      1
 UBDSV06 SAVING              CNC IN MODEL NA               PACKAGE NA              CONNECTED TO MODEL NA               PACKAGE CNC              ON UNIT   2104 AT TIME STEP      2, STRESS PERIOD      1

 SSM PACKAGE (SSM) FLOW RATES   PERIOD      1   STEP        2
 ------------------------------------------------------------------------------------------------
   NUMBER   CELLID                   BOUND Q        SSM CONC          RATE         PACKAGE NAME  
 ------------------------------------------------------------------------------------------------
     1      (1,1,1)               2.08333319E-02  1.3858898       2.88727020E-02       CHD       
     2      (2,1,1)               2.08333319E-02  1.3858898       2.88727019E-02       CHD       
     3      (3,1,1)               2.08333319E-02  1.3858898       2.88727019E-02       CHD       
     4      (4,1,1)               0.0000000       0.0000000       0.0000000            CHD       
     5      (5,1,1)               0.0000000       0.0000000       0.0000000            CHD       
     6      (6,1,1)               0.0000000       0.0000000       0.0000000            CHD       
     7      (7,1,1)               0.0000000       0.0000000       0.0000000            CHD       
     8      (8,1,1)               0.0000000       0.0000000       0.0000000            CHD       
     9      (9,1,1)               0.0000000       0.0000000       0.0000000            CHD       
     10     (10,1,1)              0.0000000       0.0000000       0.0000000            CHD       
     11     (1,1,25)             -2.08333370E-02  1.2961559      -2.70032531E-02       CHD       
     12     (2,1,25)             -2.08333370E-02  1.2961559      -2.70032531E-02       CHD       
     13     (3,1,25)             -2.08333370E-02  1.2961559      -2.70032531E-02       CHD       
     14     (4,1,25)             -2.08333370E-02  1.2961559      -2.70032531E-02       CHD       
     15     (5,1,25)             -2.08333370E-02  1.2961559      -2.70032531E-02       CHD       
     16     (6,1,25)             -2.08333370E-02  1.2961559      -2.70032531E-02       CHD       
     17     (7,1,25)             -2.08333370E-02  1.2961559      -2.70032531E-02       CHD       
     18     (8,1,25)             -2.08333370E-02  1.2961559      -2.70032531E-02       CHD       
     19     (9,1,25)             -2.08333370E-02  1.2961559      -2.70032531E-02       CHD       
     20     (10,1,25)            -2.08333370E-02  1.2961559      -2.70032531E-02       CHD       
 ------------------------------------------------------------------------------------------------




 CNC PACKAGE (CNC) FLOW RATES   PERIOD      1   STEP        2
 -----------------------------------------------
   NUMBER   CELLID                    RATE      
 -----------------------------------------------
     1      (4,1,1)               2.49238324E-02
     2      (5,1,1)               2.69965644E-02
     3      (6,1,1)               2.70002387E-02
     4      (7,1,1)               2.70018988E-02
     5      (8,1,1)               2.70026393E-02
     6      (9,1,1)               2.70029594E-02
     7      (10,1,1)              2.70030783E-02
 -----------------------------------------------



1
  CONCENTRATION IN LAYER   1 AT END OF TIME STEP   2 IN STRESS PERIOD    1
  ---------------------------------------------------------------------------

                1               2               3               4               5               6               7               8               9              10
               11              12              13              14              15              16              17              18              19              20
               21              22              23              24              25
 ................................................................................................................................................................
   1  1.312793052     1.300191539     1.296688710     1.296217220     1.296162728     1.296156675     1.296156007     1.296155932     1.296155925     1.296155925    
      1.296155923     1.296155920     1.296155917     1.296155914     1.296155913     1.296155912     1.296155911     1.296155910     1.296155910     1.296155911    
      1.296155912     1.296155914     1.296155916     1.296155919     1.296155920    
1
  CONCENTRATION IN LAYER   2 AT END OF TIME STEP   2 IN STRESS PERIOD    1
  ---------------------------------------------------------------------------

                1               2               3               4               5               6               7               8               9              10
               11              12              13              14              15              16              17              18              19              20
               21              22              23              24              25
 ................................................................................................................................................................
   1  1.310871037     1.299661490     1.296632291     1.296212433     1.296162315     1.296156638     1.296156006     1.296155936     1.296155927     1.296155925    
      1.296155922     1.296155919     1.296155916     1.296155913     1.296155911     1.296155909     1.296155907     1.296155907     1.296155907     1.296155908    
      1.296155910     1.296155912     1.296155915     1.296155918     1.296155920    
1
  CONCENTRATION IN LAYER   3 AT END OF TIME STEP   2 IN STRESS PERIOD    1
  ---------------------------------------------------------------------------

                1               2               3               4               5               6               7               8               9              10
               11              12              13              14              15              16              17              18              19              20
               21              22              23              24              25
 ................................................................................................................................................................
   1  1.306066444     1.298618274     1.296536164     1.296204295     1.296161578     1.296156570     1.296156004     1.296155941     1.296155931     1.296155925    
      1.296155919     1.296155917     1.296155914     1.296155911     1.296155907     1.296155904     1.296155902     1.296155901     1.296155902     1.296155904    
      1.296155906     1.296155909     1.296155913     1.296155918     1.296155920    
1
  CONCENTRATION IN LAYER   4 AT END OF TIME STEP   2 IN STRESS PERIOD    1
  ---------------------------------------------------------------------------

                1               2               3               4               5               6               7               8               9              10
               11              12              13              14              15              16              17              18              19              20
               21              22              23              24              25
 ................................................................................................................................................................
   1  1.296155920     1.297286540     1.296437228     1.296194978     1.296160655     1.296156481     1.296155999     1.296155946     1.296155934     1.296155925    
      1.296155918     1.296155916     1.296155914     1.296155910     1.296155905     1.296155900     1.296155897     1.296155897     1.296155898     1.296155900    
      1.296155903     1.296155907     1.296155911     1.296155917     1.296155919    
1
  CONCENTRATION IN LAYER   5 AT END OF TIME STEP   2 IN STRESS PERIOD    1
  ---------------------------------------------------------------------------

                1               2               3               4               5               6               7               8               9              10
               11              12              13              14              15              16              17              18              19              20
               21              22              23              24              25
 ................................................................................................................................................................
   1  1.296155920     1.296669098     1.296331517     1.296184770     1.296159661     1.296156383     1.296155992     1.296155948     1.296155936     1.296155925    
      1.296155917     1.296155915     1.296155913     1.296155909     1.296155903     1.296155897     1.296155894     1.296155894     1.296155895     1.296155898    
      1.296155901     1.296155905     1.296155910     1.296155916     1.296155919    
1
  CONCENTRATION IN LAYER   6 AT END OF TIME STEP   2 IN STRESS PERIOD    1
  ---------------------------------------------------------------------------

                1               2               3               4               5               6               7               8               9              10
               11              12              13              14              15              16              17              18              19              20
               21              22              23              24              25
 ................................................................................................................................................................
   1  1.296155920     1.296386911     1.296256204     1.296175653     1.296158722     1.296156288     1.296155983     1.296155948     1.296155936     1.296155925    
      1.296155917     1.296155915     1.296155913     1.296155909     1.296155903     1.296155897     1.296155894     1.296155893     1.296155895     1.296155897    
      1.296155900     1.296155904     1.296155909     1.296155916     1.296155919    
1
  CONCENTRATION IN LAYER   7 AT END OF TIME STEP   2 IN STRESS PERIOD    1
  ---------------------------------------------------------------------------

                1               2               3               4               5               6               7               8               9              10
               11              12              13              14              15              16              17              18              19              20
               21              22              23              24              25
 ................................................................................................................................................................
   1  1.296155920     1.296259415     1.296210240     1.296168671     1.296157933     1.296156204     1.296155974     1.296155946     1.296155936     1.296155926    
      1.296155918     1.296155916     1.296155914     1.296155910     1.296155904     1.296155898     1.296155895     1.296155894     1.296155895     1.296155898    
      1.296155901     1.296155905     1.296155909     1.296155916     1.296155919    
1
  CONCENTRATION IN LAYER   8 AT END OF TIME STEP   2 IN STRESS PERIOD    1
  ---------------------------------------------------------------------------

                1               2               3               4               5               6               7               8               9              10
               11              12              13              14              15              16              17              18              19              20
               21              22              23              24              25
 ................................................................................................................................................................
   1  1.296155920     1.296202544     1.296184643     1.296163928     1.296157342     1.296156138     1.296155965     1.296155943     1.296155934     1.296155925    
      1.296155918     1.296155916     1.296155914     1.296155911     1.296155905     1.296155900     1.296155897     1.296155896     1.296155897     1.296155899    
      1.296155902     1.296155906     1.296155910     1.296155916     1.296155919    
1
  CONCENTRATION IN LAYER   9 AT END OF TIME STEP   2 IN STRESS PERIOD    1
  ---------------------------------------------------------------------------

                1               2               3               4               5               6               7               8               9              10
               11              12              13              14              15              16              17              18              19              20
               21              22              23              24              25
 ................................................................................................................................................................
   1  1.296155920     1.296177960     1.296171598     1.296161094     1.296156957     1.296156092     1.296155957     1.296155939     1.296155931     1.296155925    
      1.296155919     1.296155917     1.296155915     1.296155912     1.296155907     1.296155903     1.296155901     1.296155900     1.296155901     1.296155902    
      1.296155905     1.296155908     1.296155911     1.296155917     1.296155919    
1
  CONCENTRATION IN LAYER  10 AT END OF TIME STEP   2 IN STRESS PERIOD    1
  ---------------------------------------------------------------------------

                1               2               3               4               5               6               7               8               9              10
               11              12              13              14              15              16              17              18              19              20
               21              22              23              24              25
 ................................................................................................................................................................
   1  1.296155920     1.296168828     1.296166201     1.296159791     1.296156771     1.296156069     1.296155948     1.296155930     1.296155927     1.296155927    
      1.296155924     1.296155920     1.296155915     1.296155912     1.296155910     1.296155908     1.296155906     1.296155905     1.296155905     1.296155906    
      1.296155908     1.296155910     1.296155913     1.296155917     1.296155919    

 CONCENTRATION WILL BE SAVED ON UNIT 2105 AT END OF TIME STEP    2, STRESS PERIOD    1


  MASS BUDGET FOR ENTIRE MODEL AT END OF TIME STEP    2, STRESS PERIOD   1
  ---------------------------------------------------------------------------------------------------

     CUMULATIVE MASS      M       RATES FOR THIS TIME STEP      M/T          PACKAGE NAME    
     ------------------                 ------------------------                     ----------------

           IN:                                      IN:
           ---                                      ---
     STORAGE-AQUEOUS =       3.0738E-06       STORAGE-AQUEOUS =       1.1998E-07     MST                              
                 CHD =           1.7324                   CHD =       8.6618E-02     SSM_CHD                          
                 CNC =           3.7801                   CNC =           0.1890     CNC                              

            TOTAL IN =           5.5125              TOTAL IN =           0.2756

          OUT:                                     OUT:
          ----                                     ----
     STORAGE-AQUEOUS =       7.7989E-02       STORAGE-AQUEOUS =       3.5169E-03     MST                              
                 CHD =           5.4007                   CHD =           0.2700     SSM_CHD                          
                 CNC =       3.3820E-02                   CNC =       2.0647E-03     CNC                              

           TOTAL OUT =           5.5125             TOTAL OUT =           0.2756

            IN - OUT =       4.9135E-09              IN - OUT =       2.1996E-10

 PERCENT DISCREPANCY =           0.00     PERCENT DISCREPANCY =           0.00




         TIME SUMMARY AT END OF TIME STEP    2 IN STRESS PERIOD    1
                    SECONDS     MINUTES      HOURS       DAYS        YEARS
                    -----------------------------------------------------------
   TIME STEP LENGTH 8.64000E+05  14400.      240.00      10.000     2.73785E-02
 STRESS PERIOD TIME 1.72800E+06  28800.      480.00      20.000     5.47570E-02
         TOTAL TIME 1.72800E+06  28800.      480.00      20.000     5.47570E-02


end timestep


start timestep kper="1" kstp="3" mode="normal"

 UBDSV06 SAVING  SOURCE-SINK MIX IN MODEL NA               PACKAGE NA              CONNECTED TO MODEL NA               PACKAGE SSM              ON UNIT   2104 AT TIME STEP      3, STRESS PERIOD      1
 UBDSV06 SAVING              CNC IN MODEL NA               PACKAGE NA              CONNECTED TO MODEL NA               PACKAGE CNC              ON UNIT   2104 AT TIME STEP      3, STRESS PERIOD      1

 SSM PACKAGE (SSM) FLOW RATES   PERIOD      1   STEP        3
 ------------------------------------------------------------------------------------------------
   NUMBER   CELLID                   BOUND Q        SSM CONC          RATE         PACKAGE NAME  
 ------------------------------------------------------------------------------------------------
     1      (1,1,1)               2.08333325E-02  1.3858898       2.88727028E-02       CHD       
     2      (2,1,1)               2.08333325E-02  1.3858898       2.88727028E-02       CHD       
     3      (3,1,1)               2.08333325E-02  1.3858898       2.88727028E-02       CHD       
     4      (4,1,1)               0.0000000       0.0000000       0.0000000            CHD       
     5      (5,1,1)               0.0000000       0.0000000       0.0000000            CHD       
     6      (6,1,1)               0.0000000       0.0000000       0.0000000            CHD       
     7      (7,1,1)               0.0000000       0.0000000       0.0000000            CHD       
     8      (8,1,1)               0.0000000       0.0000000       0.0000000            CHD       
     9      (9,1,1)               0.0000000       0.0000000       0.0000000            CHD       
     10     (10,1,1)              0.0000000       0.0000000       0.0000000            CHD       
     11     (1,1,25)             -2.08333362E-02  1.2961559      -2.70032520E-02       CHD       
     12     (2,1,25)             -2.08333362E-02  1.2961559      -2.70032520E-02       CHD       
     13     (3,1,25)             -2.08333362E-02  1.2961559      -2.70032520E-02       CHD       
     14     (4,1,25)             -2.08333362E-02  1.2961559      -2.70032520E-02       CHD       
     15     (5,1,25)             -2.08333362E-02  1.2961559      -2.70032521E-02       CHD       
     16     (6,1,25)             -2.08333362E-02  1.2961559      -2.70032521E-02       CHD       
     17     (7,1,25)             -2.08333362E-02  1.2961559      -2.70032521E-02       CHD       
     18     (8,1,25)             -2.08333362E-02  1.2961559      -2.70032521E-02       CHD       
     19     (9,1,25)             -2.08333362E-02  1.2961559      -2.70032521E-02       CHD       
     20     (10,1,25)            -2.08333362E-02  1.2961559      -2.70032521E-02       CHD       
 ------------------------------------------------------------------------------------------------




 CNC PACKAGE (CNC) FLOW RATES   PERIOD      1   STEP        3
 -----------------------------------------------
   NUMBER   CELLID                    RATE      
 -----------------------------------------------
     1      (4,1,1)               2.44432117E-02
     2      (5,1,1)               2.69905595E-02
     3      (6,1,1)               2.69970740E-02
     4      (7,1,1)               2.70002663E-02
     5      (8,1,1)               2.70018013E-02
     6      (9,1,1)               2.70025098E-02
     7      (10,1,1)              2.70027857E-02
 -----------------------------------------------



1
  CONCENTRATION IN LAYER   1 AT END OF TIME STEP   3 IN STRESS PERIOD    1
  ---------------------------------------------------------------------------

                1               2               3               4               5               6               7               8               9              10
               11              12              13              14              15              16              17              18              19              20
               21              22              23              24              25
 ................................................................................................................................................................
   1  1.317500065     1.302603306     1.297261783     1.296314744     1.296177057     1.296158622     1.296156265     1.296155969     1.296155930     1.296155925    
      1.296155923     1.296155920     1.296155916     1.296155912     1.296155909     1.296155908     1.296155907     1.296155906     1.296155906     1.296155907    
      1.296155909     1.296155911     1.296155914     1.296155917     1.296155919    
1
  CONCENTRATION IN LAYER   2 AT END OF TIME STEP   3 IN STRESS PERIOD    1
  ---------------------------------------------------------------------------

                1               2               3               4               5               6               7               8               9              10
               11              12              13              14              15              16              17              18              19              20
               21              22              23              24              25
 ................................................................................................................................................................
   1  1.314755253     1.301744052     1.297150693     1.296303414     1.296175895     1.296158500     1.296156253     1.296155969     1.296155931     1.296155925    
      1.296155922     1.296155919     1.296155914     1.296155910     1.296155907     1.296155905     1.296155904     1.296155903     1.296155903     1.296155904    
      1.296155906     1.296155909     1.296155913     1.296155917     1.296155919    
1
  CONCENTRATION IN LAYER   3 AT END OF TIME STEP   3 IN STRESS PERIOD    1
  ---------------------------------------------------------------------------

                1               2               3               4               5               6               7               8               9              10
               11              12              13              14              15              16              17              18              19              20
               21              22              23              24              25
 ................................................................................................................................................................
   1  1.308320390     1.300117611     1.296962358     1.296283966     1.296173806     1.296158274     1.296156231     1.296155968     1.296155932     1.296155925    
      1.296155922     1.296155918     1.296155913     1.296155907     1.296155903     1.296155901     1.296155899     1.296155898     1.296155899     1.296155900    
      1.296155903     1.296155907     1.296155911     1.296155916     1.296155919    
1
  CONCENTRATION IN LAYER   4 AT END OF TIME STEP   3 IN STRESS PERIOD    1
  ---------------------------------------------------------------------------

                1               2               3               4               5               6               7               8               9              10
               11              12              13              14              15              16              17              18              19              20
               21              22              23              24              25
 ................................................................................................................................................................
   1  1.296155920     1.298135135     1.296762083     1.296261049     1.296171143     1.296157976     1.296156200     1.296155967     1.296155932     1.296155926    
      1.296155921     1.296155917     1.296155911     1.296155905     1.296155900     1.296155897     1.296155895     1.296155894     1.296155894     1.296155896    
      1.296155900     1.296155904     1.296155909     1.296155916     1.296155919    
1
  CONCENTRATION IN LAYER   5 AT END OF TIME STEP   3 IN STRESS PERIOD    1
  ---------------------------------------------------------------------------

                1               2               3               4               5               6               7               8               9              10
               11              12              13              14              15              16              17              18              19              20
               21              22              23              24              25
 ................................................................................................................................................................
   1  1.296155920     1.297130347     1.296551609     1.296235792     1.296168229     1.296157644     1.296156164     1.296155964     1.296155933     1.296155926    
      1.296155921     1.296155917     1.296155910     1.296155903     1.296155898     1.296155894     1.296155892     1.296155891     1.296155892     1.296155894    
      1.296155897     1.296155902     1.296155908     1.296155915     1.296155919    
1
  CONCENTRATION IN LAYER   6 AT END OF TIME STEP   3 IN STRESS PERIOD    1
  ---------------------------------------------------------------------------

                1               2               3               4               5               6               7               8               9              10
               11              12              13              14              15              16              17              18              19              20
               21              22              23              24              25
 ................................................................................................................................................................
   1  1.296155920     1.296630030     1.296394305     1.296212575     1.296165407     1.296157315     1.296156127     1.296155960     1.296155933     1.296155926    
      1.296155922     1.296155917     1.296155910     1.296155903     1.296155897     1.296155893     1.296155891     1.296155890     1.296155891     1.296155893    
      1.296155896     1.296155902     1.296155907     1.296155915     1.296155919    
1
  CONCENTRATION IN LAYER   7 AT END OF TIME STEP   3 IN STRESS PERIOD    1
  ---------------------------------------------------------------------------

                1               2               3               4               5               6               7               8               9              10
               11              12              13              14              15              16              17              18              19              20
               21              22              23              24              25
 ................................................................................................................................................................
   1  1.296155920     1.296384865     1.296292599     1.296194097     1.296162971     1.296157022     1.296156092     1.296155956     1.296155933     1.296155926    
      1.296155922     1.296155918     1.296155911     1.296155904     1.296155898     1.296155894     1.296155892     1.296155891     1.296155892     1.296155893    
      1.296155897     1.296155902     1.296155907     1.296155915     1.296155919    
1
  CONCENTRATION IN LAYER   8 AT END OF TIME STEP   3 IN STRESS PERIOD    1
  ---------------------------------------------------------------------------

                1               2               3               4               5               6               7               8               9              10
               11              12              13              14              15              16              17              18              19              20
               21              22              23              24              25
 ................................................................................................................................................................
   1  1.296155920     1.296266971     1.296232636     1.296181040     1.296161093     1.296156788     1.296156063     1.296155951     1.296155931     1.296155926    
      1.296155922     1.296155918     1.296155912     1.296155905     1.296155900     1.296155896     1.296155894     1.296155893     1.296155893     1.296155895    
      1.296155898     1.296155903     1.296155908     1.296155915     1.296155919    
1
  CONCENTRATION IN LAYER   9 AT END OF TIME STEP   3 IN STRESS PERIOD    1
  ---------------------------------------------------------------------------

                1               2               3               4               5               6               7               8               9              10
               11              12              13              14              15              16              17              18              19              20
               21              22              23              24              25
 ................................................................................................................................................................
   1  1.296155920     1.296212563     1.296200509     1.296172968     1.296159841     1.296156626     1.296156041     1.296155947     1.296155930     1.296155926    
      1.296155923     1.296155919     1.296155913     1.296155907     1.296155902     1.296155899     1.296155897     1.296155896     1.296155896     1.296155898    
      1.296155901     1.296155905     1.296155909     1.296155915     1.296155919    
1
  CONCENTRATION IN LAYER  10 AT END OF TIME STEP   3 IN STRESS PERIOD    1
  ---------------------------------------------------------------------------

                1               2               3               4               5               6               7               8               9              10
               11              12              13              14              15              16              17              18              19              20
               21              22              23              24              25
 ................................................................................................................................................................
   1  1.296155920     1.296191367     1.296186733     1.296169168     1.296159221     1.296156543     1.296156029     1.296155944     1.296155930     1.296155927    
      1.296155924     1.296155919     1.296155914     1.296155909     1.296155905     1.296155903     1.296155901     1.296155900     1.296155900     1.296155901    
      1.296155903     1.296155907     1.296155911     1.296155916     1.296155919    

 CONCENTRATION WILL BE SAVED ON UNIT 2105 AT END OF TIME STEP    3, STRESS PERIOD    1


  MASS BUDGET FOR ENTIRE MODEL AT END OF TIME STEP    3, STRESS PERIOD   1
  ---------------------------------------------------------------------------------------------------

     CUMULATIVE MASS      M       RATES FOR THIS TIME STEP      M/T          PACKAGE NAME    
     ------------------                 ------------------------                     ----------------

           IN:                                      IN:
           ---                                      ---
     STORAGE-AQUEOUS =       3.6610E-06       STORAGE-AQUEOUS =       5.8721E-08     MST                              
                 CHD =           2.5985                   CHD =       8.6618E-02     SSM_CHD                          
                 CNC =           5.6698                   CNC =           0.1890     CNC                              

            TOTAL IN =           8.2684              TOTAL IN =           0.2756

          OUT:                                     OUT:
          ----                                     ----
     STORAGE-AQUEOUS =           0.1082       STORAGE-AQUEOUS =       3.0239E-03     MST                              
                 CHD =           8.1010                   CHD =           0.2700     SSM_CHD                          
                 CNC =       5.9162E-02                   CNC =       2.5343E-03     CNC                              

           TOTAL OUT =           8.2684             TOTAL OUT =           0.2756

            IN - OUT =       1.0414E-08              IN - OUT =       5.5004E-10

 PERCENT DISCREPANCY =           0.00     PERCENT DISCREPANCY =           0.00




         TIME SUMMARY AT END OF TIME STEP    3 IN STRESS PERIOD    1
                    SECONDS     MINUTES      HOURS       DAYS        YEARS
                    -----------------------------------------------------------
   TIME STEP LENGTH 8.64000E+05  14400.      240.00      10.000     2.73785E-02
 STRESS PERIOD TIME 2.59200E+06  43200.      720.00      30.000     8.21355E-02
         TOTAL TIME 2.59200E+06  43200.      720.00      30.000     8.21355E-02


end timestep


start timestep kper="1" kstp="4" mode="normal"

 UBDSV06 SAVING  SOURCE-SINK MIX IN MODEL NA               PACKAGE NA              CONNECTED TO MODEL NA               PACKAGE SSM              ON UNIT   2104 AT TIME STEP      4, STRESS PERIOD      1
 UBDSV06 SAVING              CNC IN MODEL NA               PACKAGE NA              CONNECTED TO MODEL NA               PACKAGE CNC              ON UNIT   2104 AT TIME STEP      4, STRESS PERIOD      1

 SSM PACKAGE (SSM) FLOW RATES   PERIOD      1   STEP        4
 ------------------------------------------------------------------------------------------------
   NUMBER   CELLID                   BOUND Q        SSM CONC          RATE         PACKAGE NAME  
 ------------------------------------------------------------------------------------------------
     1      (1,1,1)               2.08333321E-02  1.3858898       2.88727023E-02       CHD       
     2      (2,1,1)               2.08333321E-02  1.3858898       2.88727023E-02       CHD       
     3      (3,1,1)               2.08333321E-02  1.3858898       2.88727023E-02       CHD       
     4      (4,1,1)               0.0000000       0.0000000       0.0000000            CHD       
     5      (5,1,1)               0.0000000       0.0000000       0.0000000            CHD       
     6      (6,1,1)               0.0000000       0.0000000       0.0000000            CHD       
     7      (7,1,1)               0.0000000       0.0000000       0.0000000            CHD       
     8      (8,1,1)               0.0000000       0.0000000       0.0000000            CHD       
     9      (9,1,1)               0.0000000       0.0000000       0.0000000            CHD       
     10     (10,1,1)              0.0000000       0.0000000       0.0000000            CHD       
     11     (1,1,25)             -2.08333356E-02  1.2961559      -2.70032513E-02       CHD       
     12     (2,1,25)             -2.08333356E-02  1.2961559      -2.70032513E-02       CHD       
     13     (3,1,25)             -2.08333356E-02  1.2961559      -2.70032513E-02       CHD       
     14     (4,1,25)             -2.08333356E-02  1.2961559      -2.70032513E-02       CHD       
     15     (5,1,25)             -2.08333356E-02  1.2961559      -2.70032513E-02       CHD       
     16     (6,1,25)             -2.08333356E-02  1.2961559      -2.70032513E-02       CHD       
     17     (7,1,25)             -2.08333356E-02  1.2961559      -2.70032513E-02       CHD       
     18     (8,1,25)             -2.08333356E-02  1.2961559      -2.70032513E-02       CHD       
     19     (9,1,25)             -2.08333356E-02  1.2961559      -2.70032513E-02       CHD       
     20     (10,1,25)            -2.08333356E-02  1.2961559      -2.70032513E-02       CHD       
 ------------------------------------------------------------------------------------------------




 CNC PACKAGE (CNC) FLOW RATES   PERIOD      1   STEP        4
 -----------------------------------------------
   NUMBER   CELLID                    RATE      
 -----------------------------------------------
     1      (4,1,1)               2.41204907E-02
     2      (5,1,1)               2.69837985E-02
     3      (6,1,1)               2.69932005E-02
     4      (7,1,1)               2.69980969E-02
     5      (8,1,1)               2.70005917E-02
     6      (9,1,1)               2.70018031E-02
     7      (10,1,1)              2.70022928E-02
 -----------------------------------------------



1
  CONCENTRATION IN LAYER   1 AT END OF TIME STEP   4 IN STRESS PERIOD    1
  ---------------------------------------------------------------------------

                1               2               3               4               5               6               7               8               9              10
               11              12              13              14              15              16              17              18              19              20
               21              22              23              24              25
 ................................................................................................................................................................
   1  1.320734241     1.304819012     1.297987002     1.296474196     1.296205791     1.296163213     1.296156946     1.296156068     1.296155946     1.296155928    
      1.296155922     1.296155919     1.296155914     1.296155910     1.296155907     1.296155905     1.296155903     1.296155902     1.296155902     1.296155903    
      1.296155905     1.296155908     1.296155912     1.296155916     1.296155919    
1
  CONCENTRATION IN LAYER   2 AT END OF TIME STEP   4 IN STRESS PERIOD    1
  ---------------------------------------------------------------------------

                1               2               3               4               5               6               7               8               9              10
               11              12              13              14              15              16              17              18              19              20
               21              22              23              24              25
 ................................................................................................................................................................
   1  1.317386755     1.303670765     1.297812841     1.296453304     1.296203284     1.296162910     1.296156911     1.296156064     1.296155946     1.296155927    
      1.296155922     1.296155918     1.296155913     1.296155908     1.296155905     1.296155902     1.296155900     1.296155899     1.296155900     1.296155901    
      1.296155904     1.296155907     1.296155911     1.296155916     1.296155919    
1
  CONCENTRATION IN LAYER   3 AT END OF TIME STEP   4 IN STRESS PERIOD    1
  ---------------------------------------------------------------------------

                1               2               3               4               5               6               7               8               9              10
               11              12              13              14              15              16              17              18              19              20
               21              22              23              24              25
 ................................................................................................................................................................
   1  1.309814590     1.301544074     1.297516834     1.296417030     1.296198739     1.296162345     1.296156844     1.296156058     1.296155946     1.296155927    
      1.296155921     1.296155916     1.296155911     1.296155906     1.296155902     1.296155898     1.296155896     1.296155895     1.296155896     1.296155898    
      1.296155901     1.296155905     1.296155909     1.296155915     1.296155919    
1
  CONCENTRATION IN LAYER   4 AT END OF TIME STEP   4 IN STRESS PERIOD    1
  ---------------------------------------------------------------------------

                1               2               3               4               5               6               7               8               9              10
               11              12              13              14              15              16              17              18              19              20
               21              22              23              24              25
 ................................................................................................................................................................
   1  1.296155920     1.299012870     1.297192203     1.296373240     1.296192860     1.296161595     1.296156753     1.296156048     1.296155945     1.296155927    
      1.296155920     1.296155915     1.296155909     1.296155904     1.296155899     1.296155895     1.296155892     1.296155891     1.296155892     1.296155894    
      1.296155898     1.296155902     1.296155908     1.296155914     1.296155918    
1
  CONCENTRATION IN LAYER   5 AT END OF TIME STEP   4 IN STRESS PERIOD    1
  ---------------------------------------------------------------------------

                1               2               3               4               5               6               7               8               9              10
               11              12              13              14              15              16              17              18              19              20
               21              22              23              24              25
 ................................................................................................................................................................
   1  1.296155920     1.297649550     1.296855464     1.296324718     1.296186342     1.296160752     1.296156648     1.296156037     1.296155945     1.296155927    
      1.296155919     1.296155914     1.296155908     1.296155902     1.296155897     1.296155892     1.296155890     1.296155889     1.296155890     1.296155892    
      1.296155896     1.296155901     1.296155906     1.296155914     1.296155918    
1
  CONCENTRATION IN LAYER   6 AT END OF TIME STEP   4 IN STRESS PERIOD    1
  ---------------------------------------------------------------------------

                1               2               3               4               5               6               7               8               9              10
               11              12              13              14              15              16              17              18              19              20
               21              22              23              24              25
 ................................................................................................................................................................
   1  1.296155920     1.296927477     1.296595240     1.296279186     1.296179925     1.296159907     1.296156541     1.296156024     1.296155944     1.296155927    
      1.296155919     1.296155914     1.296155908     1.296155902     1.296155896     1.296155892     1.296155889     1.296155888     1.296155889     1.296155891    
      1.296155895     1.296155900     1.296155906     1.296155913     1.296155918    
1
  CONCENTRATION IN LAYER   7 AT END OF TIME STEP   4 IN STRESS PERIOD    1
  ---------------------------------------------------------------------------

                1               2               3               4               5               6               7               8               9              10
               11              12              13              14              15              16              17              18              19              20
               21              22              23              24              25
 ................................................................................................................................................................
   1  1.296155920     1.296551433     1.296419611     1.296241903     1.296174270     1.296159141     1.296156443     1.296156011     1.296155942     1.296155927    
      1.296155920     1.296155914     1.296155908     1.296155902     1.296155897     1.296155892     1.296155889     1.296155888     1.296155889     1.296155891    
      1.296155895     1.296155900     1.296155906     1.296155913     1.296155918    
1
  CONCENTRATION IN LAYER   8 AT END OF TIME STEP   4 IN STRESS PERIOD    1
  ---------------------------------------------------------------------------

                1               2               3               4               5               6               7               8               9              10
               11              12              13              14              15              16              17              18              19              20
               21              22              23              24              25
 ................................................................................................................................................................
   1  1.296155920     1.296359832     1.296311451     1.296214765     1.296169822     1.296158522     1.296156361     1.296156000     1.296155940     1.296155927    
      1.296155920     1.296155915     1.296155909     1.296155903     1.296155898     1.296155894     1.296155891     1.296155890     1.296155891     1.296155893    
      1.296155896     1.296155901     1.296155906     1.296155913     1.296155918    
1
  CONCENTRATION IN LAYER   9 AT END OF TIME STEP   4 IN STRESS PERIOD    1
  ---------------------------------------------------------------------------

                1               2               3               4               5               6               7               8               9              10
               11              12              13              14              15              16              17              18              19              20
               21              22              23              24              25
 ................................................................................................................................................................
   1  1.296155920     1.296266793     1.296251211     1.296197545     1.296166807     1.296158090     1.296156303     1.296155991     1.296155939     1.296155927    
      1.296155921     1.296155916     1.296155911     1.296155905     1.296155900     1.296155896     1.296155894     1.296155893     1.296155893     1.296155895    
      1.296155898     1.296155902     1.296155907     1.296155914     1.296155918    
1
  CONCENTRATION IN LAYER  10 AT END OF TIME STEP   4 IN STRESS PERIOD    1
  ---------------------------------------------------------------------------

                1               2               3               4               5               6               7               8               9              10
               11              12              13              14              15              16              17              18              19              20
               21              22              23              24              25
 ................................................................................................................................................................
   1  1.296155920     1.296229188     1.296224655     1.296189294     1.296165298     1.296157870     1.296156273     1.296155986     1.296155937     1.296155927    
      1.296155922     1.296155918     1.296155912     1.296155907     1.296155902     1.296155899     1.296155897     1.296155896     1.296155896     1.296155897    
      1.296155900     1.296155904     1.296155908     1.296155914     1.296155918    

 CONCENTRATION WILL BE SAVED ON UNIT 2105 AT END OF TIME STEP    4, STRESS PERIOD    1


  MASS BUDGET FOR ENTIRE MODEL AT END OF TIME STEP    4, STRESS PERIOD   1
  ---------------------------------------------------------------------------------------------------

     CUMULATIVE MASS      M       RATES FOR THIS TIME STEP      M/T          PACKAGE NAME    
     ------------------                 ------------------------                     ----------------

           IN:                                      IN:
           ---                                      ---
     STORAGE-AQUEOUS =       4.1041E-06       STORAGE-AQUEOUS =       4.4304E-08     MST                              
                 CHD =           3.4647                   CHD =       8.6618E-02     SSM_CHD                          
                 CNC =           7.5593                   CNC =           0.1889     CNC                              

            TOTAL IN =          11.0240              TOTAL IN =           0.2756

          OUT:                                     OUT:
          ----                                     ----
     STORAGE-AQUEOUS =           0.1351       STORAGE-AQUEOUS =       2.6859E-03     MST                              
                 CHD =          10.8013                   CHD =           0.2700     SSM_CHD                          
                 CNC =       8.7618E-02                   CNC =       2.8456E-03     CNC                              

           TOTAL OUT =          11.0240             TOTAL OUT =           0.2756

            IN - OUT =       1.4253E-08              IN - OUT =       3.8390E-10

 PERCENT DISCREPANCY =           0.00     PERCENT DISCREPANCY =           0.00




         TIME SUMMARY AT END OF TIME STEP    4 IN STRESS PERIOD    1
                    SECONDS     MINUTES      HOURS       DAYS        YEARS
                    -----------------------------------------------------------
   TIME STEP LENGTH 8.64000E+05  14400.      240.00      10.000     2.73785E-02
 STRESS PERIOD TIME 3.45600E+06  57600.      960.00      40.000     0.10951    
         TOTAL TIME 3.45600E+06  57600.      960.00      40.000     0.10951    


end timestep


start timestep kper="1" kstp="5" mode="normal"

 UBDSV06 SAVING  SOURCE-SINK MIX IN MODEL NA               PACKAGE NA              CONNECTED TO MODEL NA               PACKAGE SSM              ON UNIT   2104 AT TIME STEP      5, STRESS PERIOD      1
 UBDSV06 SAVING              CNC IN MODEL NA               PACKAGE NA              CONNECTED TO MODEL NA               PACKAGE CNC              ON UNIT   2104 AT TIME STEP      5, STRESS PERIOD      1

 SSM PACKAGE (SSM) FLOW RATES   PERIOD      1   STEP        5
 ------------------------------------------------------------------------------------------------
   NUMBER   CELLID                   BOUND Q        SSM CONC          RATE         PACKAGE NAME  
 ------------------------------------------------------------------------------------------------
     1      (1,1,1)               2.08333321E-02  1.3858898       2.88727023E-02       CHD       
     2      (2,1,1)               2.08333321E-02  1.3858898       2.88727023E-02       CHD       
     3      (3,1,1)               2.08333321E-02  1.3858898       2.88727023E-02       CHD       
     4      (4,1,1)               0.0000000       0.0000000       0.0000000            CHD       
     5      (5,1,1)               0.0000000       0.0000000       0.0000000            CHD       
     6      (6,1,1)               0.0000000       0.0000000       0.0000000            CHD       
     7      (7,1,1)               0.0000000       0.0000000       0.0000000            CHD       
     8      (8,1,1)               0.0000000       0.0000000       0.0000000            CHD       
     9      (9,1,1)               0.0000000       0.0000000       0.0000000            CHD       
     10     (10,1,1)              0.0000000       0.0000000       0.0000000            CHD       
     11     (1,1,25)             -2.08333353E-02  1.2961559      -2.70032509E-02       CHD       
[...]
               21              22              23              24              25
 ................................................................................................................................................................
   1  1.296155920     1.297724945     1.300000121     1.301756123     1.302792870     1.303341623     1.303620619     1.303760607     1.303830429     1.303864835    
      1.303880906     1.303885873     1.303884322     1.303877815     1.303864746     1.303843385     1.303811066     1.303764204     1.303698430     1.303608722    
      1.303489761     1.303336523     1.303145640     1.302919347     1.302679178    

 CONCENTRATION WILL BE SAVED ON UNIT 2105 AT END OF TIME STEP  199, STRESS PERIOD    1


  MASS BUDGET FOR ENTIRE MODEL AT END OF TIME STEP  199, STRESS PERIOD   1
  ---------------------------------------------------------------------------------------------------

     CUMULATIVE MASS      M       RATES FOR THIS TIME STEP      M/T          PACKAGE NAME    
     ------------------                 ------------------------                     ----------------

           IN:                                      IN:
           ---                                      ---
     STORAGE-AQUEOUS =       8.0776E-06       STORAGE-AQUEOUS =       4.9267E-12     MST                              
                 CHD =         172.3700                   CHD =       8.6618E-02     SSM_CHD                          
                 CNC =         375.4619                   CNC =           0.1887     CNC                              

            TOTAL IN =         547.8319              TOTAL IN =           0.2753

          OUT:                                     OUT:
          ----                                     ----
     STORAGE-AQUEOUS =           2.6464       STORAGE-AQUEOUS =       2.5456E-04     MST                              
                 CHD =         538.0478                   CHD =           0.2714     SSM_CHD                          
                 CNC =           7.1377                   CNC =       3.6285E-03     CNC                              

           TOTAL OUT =         547.8319             TOTAL OUT =           0.2753

            IN - OUT =      -4.8928E-06              IN - OUT =      -2.3465E-08

 PERCENT DISCREPANCY =          -0.00     PERCENT DISCREPANCY =          -0.00




         TIME SUMMARY AT END OF TIME STEP  199 IN STRESS PERIOD    1
                    SECONDS     MINUTES      HOURS       DAYS        YEARS
                    -----------------------------------------------------------
   TIME STEP LENGTH 8.64000E+05  14400.      240.00      10.000     2.73785E-02
 STRESS PERIOD TIME 1.71936E+08 2.86560E+06  47760.      1990.0      5.4483    
         TOTAL TIME 1.71936E+08 2.86560E+06  47760.      1990.0      5.4483    


end timestep


start timestep kper="1" kstp="200" mode="normal"

 UBDSV06 SAVING  SOURCE-SINK MIX IN MODEL NA               PACKAGE NA              CONNECTED TO MODEL NA               PACKAGE SSM              ON UNIT   2104 AT TIME STEP    200, STRESS PERIOD      1
 UBDSV06 SAVING              CNC IN MODEL NA               PACKAGE NA              CONNECTED TO MODEL NA               PACKAGE CNC              ON UNIT   2104 AT TIME STEP    200, STRESS PERIOD      1

 SSM PACKAGE (SSM) FLOW RATES   PERIOD      1   STEP      200
 ------------------------------------------------------------------------------------------------
   NUMBER   CELLID                   BOUND Q        SSM CONC          RATE         PACKAGE NAME  
 ------------------------------------------------------------------------------------------------
     1      (1,1,1)               2.08333330E-02  1.3858898       2.88727035E-02       CHD       
     2      (2,1,1)               2.08333330E-02  1.3858898       2.88727035E-02       CHD       
     3      (3,1,1)               2.08333330E-02  1.3858898       2.88727035E-02       CHD       
     4      (4,1,1)               0.0000000       0.0000000       0.0000000            CHD       
     5      (5,1,1)               0.0000000       0.0000000       0.0000000            CHD       
     6      (6,1,1)               0.0000000       0.0000000       0.0000000            CHD       
     7      (7,1,1)               0.0000000       0.0000000       0.0000000            CHD       
     8      (8,1,1)               0.0000000       0.0000000       0.0000000            CHD       
     9      (9,1,1)               0.0000000       0.0000000       0.0000000            CHD       
     10     (10,1,1)              0.0000000       0.0000000       0.0000000            CHD       
     11     (1,1,25)             -2.08333337E-02  1.3027189      -2.71399778E-02       CHD       
     12     (2,1,25)             -2.08333337E-02  1.3027189      -2.71399777E-02       CHD       
     13     (3,1,25)             -2.08333337E-02  1.3027189      -2.71399776E-02       CHD       
     14     (4,1,25)             -2.08333337E-02  1.3027189      -2.71399774E-02       CHD       
     15     (5,1,25)             -2.08333337E-02  1.3027189      -2.71399773E-02       CHD       
     16     (6,1,25)             -2.08333337E-02  1.3027189      -2.71399772E-02       CHD       
     17     (7,1,25)             -2.08333337E-02  1.3027189      -2.71399770E-02       CHD       
     18     (8,1,25)             -2.08333337E-02  1.3027189      -2.71399768E-02       CHD       
     19     (9,1,25)             -2.08333337E-02  1.3027189      -2.71399766E-02       CHD       
     20     (10,1,25)            -2.08333337E-02  1.3027188      -2.71399763E-02       CHD       
 ------------------------------------------------------------------------------------------------




 CNC PACKAGE (CNC) FLOW RATES   PERIOD      1   STEP      200
 -----------------------------------------------
   NUMBER   CELLID                    RATE      
 -----------------------------------------------
     1      (4,1,1)               2.32556481E-02
     2      (5,1,1)               2.69227955E-02
     3      (6,1,1)               2.69480234E-02
     4      (7,1,1)               2.69642092E-02
     5      (8,1,1)               2.69742957E-02
     6      (9,1,1)               2.69801404E-02
     7      (10,1,1)              2.69828179E-02
 -----------------------------------------------



1
  CONCENTRATION IN LAYER   1 AT END OF TIME STEP 200 IN STRESS PERIOD    1
  ---------------------------------------------------------------------------

                1               2               3               4               5               6               7               8               9              10
               11              12              13              14              15              16              17              18              19              20
               21              22              23              24              25
 ................................................................................................................................................................
   1  1.328877804     1.315771935     1.308923367     1.306218945     1.305030839     1.304462369     1.304181328     1.304041035     1.303970688     1.303934990    
      1.303915955     1.303904101     1.303894319     1.303883382     1.303868585     1.303847103     1.303815699     1.303770565     1.303707285     1.303620876    
      1.303506050     1.303357792     1.303172672     1.302952733     1.302718915    
1
  CONCENTRATION IN LAYER   2 AT END OF TIME STEP 200 IN STRESS PERIOD    1
  ---------------------------------------------------------------------------

                1               2               3               4               5               6               7               8               9              10
               11              12              13              14              15              16              17              18              19              20
               21              22              23              24              25
 ................................................................................................................................................................
   1  1.323995723     1.313620459     1.308235427     1.305965068     1.304917398     1.304407203     1.304153879     1.304027315     1.303963826     1.303931560    
      1.303914236     1.303903228     1.303893877     1.303883165     1.303868483     1.303847057     1.303815679     1.303770556     1.303707281     1.303620874    
      1.303506049     1.303357791     1.303172670     1.302952726     1.302718909    
1
  CONCENTRATION IN LAYER   3 AT END OF TIME STEP 200 IN STRESS PERIOD    1
  ---------------------------------------------------------------------------

                1               2               3               4               5               6               7               8               9              10
               11              12              13              14              15              16              17              18              19              20
               21              22              23              24              25
 ................................................................................................................................................................
   1  1.313572688     1.309765063     1.307009118     1.305495754     1.304702974     1.304302347     1.304101667     1.304001216     1.303950774     1.303925035    
      1.303910966     1.303901566     1.303893034     1.303882753     1.303868289     1.303846969     1.303815640     1.303770539     1.303707273     1.303620871    
      1.303506047     1.303357790     1.303172669     1.302952722     1.302718902    
1
  CONCENTRATION IN LAYER   4 AT END OF TIME STEP 200 IN STRESS PERIOD    1
  ---------------------------------------------------------------------------

                1               2               3               4               5               6               7               8               9              10
               11              12              13              14              15              16              17              18              19              20
               21              22              23              24              25
 ................................................................................................................................................................
   1  1.296155920     1.305303297     1.305491739     1.304875734     1.304410175     1.304158176     1.304029803     1.303965292     1.303932808     1.303916054    
      1.303906468     1.303899275     1.303891876     1.303882186     1.303868024     1.303846849     1.303815586     1.303770515     1.303707262     1.303620866    
      1.303506045     1.303357788     1.303172667     1.302952719     1.302718896    
1
  CONCENTRATION IN LAYER   5 AT END OF TIME STEP 200 IN STRESS PERIOD    1
  ---------------------------------------------------------------------------

                1               2               3               4               5               6               7               8               9              10
               11              12              13              14              15              16              17              18              19              20
               21              22              23              24              25
 ................................................................................................................................................................
   1  1.296155920     1.302334667     1.304025018     1.304158195     1.304067638     1.303988926     1.303945325     1.303923056     1.303911687     1.303905500    
      1.303901186     1.303896575     1.303890509     1.303881521     1.303867713     1.303846709     1.303815524     1.303770487     1.303707250     1.303620860    
      1.303506042     1.303357787     1.303172666     1.302952716     1.302718890    
1
  CONCENTRATION IN LAYER   6 AT END OF TIME STEP 200 IN STRESS PERIOD    1
  ---------------------------------------------------------------------------

                1               2               3               4               5               6               7               8               9              10
               11              12              13              14              15              16              17              18              19              20
               21              22              23              24              25
 ................................................................................................................................................................
   1  1.296155920     1.300397161     1.302704276     1.303455613     1.303711095     1.303811017     1.303856489     1.303878643     1.303889478     1.303894408    
      1.303895648     1.303893719     1.303889065     1.303880821     1.303867389     1.303846562     1.303815458     1.303770458     1.303707237     1.303620854    
      1.303506040     1.303357785     1.303172664     1.302952713     1.302718883    
1
  CONCENTRATION IN LAYER   7 AT END OF TIME STEP 200 IN STRESS PERIOD    1
  ---------------------------------------------------------------------------

                1               2               3               4               5               6               7               8               9              10
               11              12              13              14              15              16              17              18              19              20
               21              22              23              24              25
 ................................................................................................................................................................
   1  1.296155920     1.299154089     1.301618731     1.302821545     1.303377942     1.303642447     1.303772026     1.303836399     1.303868354     1.303883850    
      1.303890460     1.303890962     1.303887663     1.303880152     1.303867082     1.303846424     1.303815397     1.303770431     1.303707225     1.303620849    
      1.303506037     1.303357784     1.303172663     1.302952710     1.302718876    
1
  CONCENTRATION IN LAYER   8 AT END OF TIME STEP 200 IN STRESS PERIOD    1
  ---------------------------------------------------------------------------

                1               2               3               4               5               6               7               8               9              10
               11              12              13              14              15              16              17              18              19              20
               21              22              23              24              25
 ................................................................................................................................................................
   1  1.296155920     1.298379447     1.300804080     1.302305368     1.303098557     1.303499532     1.303700204     1.303800464     1.303850384     1.303874868    
      1.303886015     1.303888722     1.303886409     1.303879572     1.303866822     1.303846308     1.303815344     1.303770407     1.303707214     1.303620844    
      1.303506035     1.303357783     1.303172662     1.302952707     1.302718867    
1
  CONCENTRATION IN LAYER   9 AT END OF TIME STEP 200 IN STRESS PERIOD    1
  ---------------------------------------------------------------------------

                1               2               3               4               5               6               7               8               9              10
               11              12              13              14              15              16              17              18              19              20
               21              22              23              24              25
 ................................................................................................................................................................
   1  1.296155920     1.297930575     1.300266333     1.301942757     1.302897741     1.303395975     1.303648041     1.303774351     1.303837326     1.303868342    
      1.303882777     1.303887131     1.303885475     1.303879144     1.303866634     1.303846224     1.303815307     1.303770391     1.303707207     1.303620841    
      1.303506034     1.303357782     1.303172661     1.302952704     1.302718856    
1
  CONCENTRATION IN LAYER  10 AT END OF TIME STEP 200 IN STRESS PERIOD    1
  ---------------------------------------------------------------------------

                1               2               3               4               5               6               7               8               9              10
               11              12              13              14              15              16              17              18              19              20
               21              22              23              24              25
 ................................................................................................................................................................
   1  1.296155920     1.297724945     1.300000121     1.301756124     1.302792871     1.303341625     1.303620624     1.303760622     1.303830462     1.303864911    
      1.303881073     1.303886303     1.303884979     1.303878917     1.303866535     1.303846180     1.303815288     1.303770382     1.303707204     1.303620840    
      1.303506033     1.303357782     1.303172660     1.302952701     1.302718842    

 CONCENTRATION WILL BE SAVED ON UNIT 2105 AT END OF TIME STEP  200, STRESS PERIOD    1


  MASS BUDGET FOR ENTIRE MODEL AT END OF TIME STEP  200, STRESS PERIOD   1
  ---------------------------------------------------------------------------------------------------

     CUMULATIVE MASS      M       RATES FOR THIS TIME STEP      M/T          PACKAGE NAME    
     ------------------                 ------------------------                     ----------------

           IN:                                      IN:
           ---                                      ---
     STORAGE-AQUEOUS =       8.0777E-06       STORAGE-AQUEOUS =       9.7213E-12     MST                              
                 CHD =         173.2362                   CHD =       8.6618E-02     SSM_CHD                          
                 CNC =         377.3485                   CNC =           0.1887     CNC                              

            TOTAL IN =         550.5847              TOTAL IN =           0.2753

          OUT:                                     OUT:
          ----                                     ----
     STORAGE-AQUEOUS =           2.6489       STORAGE-AQUEOUS =       2.4629E-04     MST                              
                 CHD =         540.7618                   CHD =           0.2714     SSM_CHD                          
                 CNC =           7.1740                   CNC =       3.6285E-03     CNC                              

           TOTAL OUT =         550.5847             TOTAL OUT =           0.2753

            IN - OUT =      -5.1253E-06              IN - OUT =      -2.3250E-08

 PERCENT DISCREPANCY =          -0.00     PERCENT DISCREPANCY =          -0.00




         TIME SUMMARY AT END OF TIME STEP  200 IN STRESS PERIOD    1
                    SECONDS     MINUTES      HOURS       DAYS        YEARS
                    -----------------------------------------------------------
   TIME STEP LENGTH 8.64000E+05  14400.      240.00      10.000     2.73785E-02
 STRESS PERIOD TIME 1.72800E+08 2.88000E+06  48000.      2000.0      5.4757    
         TOTAL TIME 1.72800E+08 2.88000E+06  48000.      2000.0      5.4757    


end timestep

