                                   MODFLOW 6
                U.S. GEOLOGICAL SURVEY MODULAR HYDROLOGIC MODEL
                       GROUNDWATER TRANSPORT MODEL (GWT)
                VERSION 6.5.0.dev0+prt (preliminary) 10/07/2023
                               ***DEVELOP MODE***

   MODFLOW 6 compiled Oct 07 2023 02:19:02 with Intel(R) Fortran Intel(R) 64
   Compiler Classic for applications running on Intel(R) 64, Version 2021.7.0
                             Build 20220726_000000

This software is preliminary or provisional and is subject to 
revision. It is being provided to meet the need for timely best 
science. The software has not received final approval by the U.S. 
Geological Survey (USGS). No warranty, expressed or implied, is made 
by the USGS or the U.S. Government as to the functionality of the 
software and related material nor shall the fact of release 
constitute any such warranty. The software is provided on the 
condition that neither the USGS nor the U.S. Government shall be held 
liable for any damages resulting from the authorized or unauthorized 
use of the software.


As a work of the United States Government, this USGS product is 
in the public domain within the United States. You can copy, 
modify, distribute, and perform the work, even for commercial 
purposes, all without asking permission. Additionally, USGS 
waives copyright and related rights in the work worldwide 
through CC0 1.0 Universal Public Domain Dedication 
(https://creativecommons.org/publicdomain/zero/1.0/).

The following GNU Lesser General Public License (LGPL) libraries
are used in this USGS product:

    SPARSKIT version 2.0
      ilut, luson, and qsplit 
      (https://www-users.cse.umn.edu/~saad/software/SPARSKIT/)

    RCM - Reverse Cuthill McKee Ordering
      (https://people.math.sc.edu/Burkardt/f_src/rcm/rcm.html)

    BLAS - Basic Linear Algebra Subprograms Level 1
      (https://people.math.sc.edu/Burkardt/f_src/blas1_d/blas1_d.html)

    SPARSEKIT - Sparse Matrix Utility Package
      amux, dperm, dvperm, rperm, and cperm
      (https://people.sc.fsu.edu/~jburkardt/f77_src/sparsekit/sparsekit.html)

The following BSD-3 License libraries are used in this USGS product:

    Modern Fortran DAG Library
      Copyright (c) 2018, Jacob Williams
      All rights reserved.
      (https://github.com/jacobwilliams/daglib)

MODFLOW 6 compiler options: /Isrc\libmf6core.a.p /Isrc /I..\src
/Isrc\libmf6_external.a.p /MTd /nologo /warn:general /warn:truncated_source
/stand:f08 /Zi /traceback /O2 /fpe:0 /heap-arrays:0 /traceback /fpp
/Qdiag-disable:7416 /Qdiag-disable:7025 /Qdiag-disable:5268
/Fdsrc\libmf6core.a.p\Utilities_compilerversion.F90.pdb
/module:src\libmf6core.a.p
/Fosrc/libmf6core.a.p/Utilities_compilerversion.F90.obj /c

System command used to initiate simulation:
c:\Users\portega\anaconda3\envs\mf6rtm\python.exe -m ipykernel_launcher --f=c:\Users\portega\AppData\Roaming\jupyter\runtime\kernel-v2-17404NqyrdJ157y2B.json

MODFLOW was compiled using uniform precision.

Real Variables
  KIND: 8
  TINY (smallest non-zero value):    2.225074-308
  HUGE (largest value):    1.797693+308
  PRECISION: 15
  SIZE IN BITS: 64

Integer Variables
  KIND: 4
  HUGE (largest value): 2147483647
  SIZE IN BITS: 32

Long Integer Variables
  KIND: 8
  HUGE (largest value): 9223372036854775807
  SIZE IN BITS: 64

Logical Variables
  KIND: 4
  SIZE IN BITS: 32
 
 NAMEFILE OPTIONS:
 END NAMEFILE OPTIONS:

 DIS -- STRUCTURED GRID DISCRETIZATION PACKAGE, VERSION 2 : 3/27/2014 - INPUT READ FROM MEMPATH: __INPUT__/O/DIS                                   


 DSP-- DISPERSION PACKAGE, VERSION 1, 1/24/2018 INPUT READ FROM MEMPATH: __INPUT__/O/DSP                                   


 Setting Discretization Options
    Model length unit [0=UND, 1=FEET, 2=METERS, 3=CENTIMETERS] set as 2
 End Setting Discretization Options

 Setting Discretization Dimensions
    NLAY = 10
    NROW = 1
    NCOL = 25
 End Setting Discretization Dimensions

 Setting Discretization Griddata
    DELR set from input file
    DELC set from input file
    TOP set from input file
    BOTM set from input file
    IDOMAIN set from input file
 End Setting Discretization Griddata


 FMI -- FLOW MODEL INTERFACE,' VERSION 2, 8/17/2023
  FLOWS PROVIDED BY A GWF MODEL IN THIS SIMULATION

 ADV-- ADVECTION PACKAGE, VERSION 1, 8/25/2017 INPUT READ FROM UNIT 1124


 # File generated by Flopy version 3.5.0.dev0 on 07/12/2024 at 11:54:47.
 PROCESSING ADVECTION OPTIONS
    ADVECTION WEIGHTING SCHEME HAS BEEN SET TO: TVD
 END OF ADVECTION OPTIONS
 Setting DSP Options
    XT3D formulation [0=INACTIVE, 1=ACTIVE, 3=ACTIVE RHS] set to: 0
 End Setting DSP Options

 Setting DSP Griddata
    ALH set from input file
    ATH1 set from input file
    ATV set from input file
 End Setting DSP Griddata


 CNC   -- CNC PACKAGE, VERSION 8, 2/22/2014 INPUT READ FROM UNIT 1158
 # File generated by Flopy version 3.5.0.dev0 on 07/12/2024 at 11:54:47.

 PROCESSING CNC OPTIONS
    CNC FLOWS WILL BE PRINTED TO LISTING FILE.
    FLOWS WILL BE SAVED TO BUDGET FILE SPECIFIED IN OUTPUT CONTROL
 END OF CNC OPTIONS

 PROCESSING CNC DIMENSIONS
    MAXBOUND =       7
 END OF CNC DIMENSIONS

 IC -- INITIAL CONDITIONS PACKAGE, VERSION 8, 3/28/2015 INPUT READ FROM UNIT 1122
 # File generated by Flopy version 3.5.0.dev0 on 07/12/2024 at 11:54:47.
 PROCESSING GRIDDATA

 OPENED O.ic_strt_layer1.txt
 FILE TYPE:OPEN/CLOSE   UNIT 1952   STATUS:OLD                 
 FORMAT:FORMATTED              ACCESS:SEQUENTIAL          
 ACTION:READ                


 OPENED O.ic_strt_layer2.txt
 FILE TYPE:OPEN/CLOSE   UNIT 1953   STATUS:OLD                 
 FORMAT:FORMATTED              ACCESS:SEQUENTIAL          
 ACTION:READ                


 OPENED O.ic_strt_layer3.txt
 FILE TYPE:OPEN/CLOSE   UNIT 1954   STATUS:OLD                 
 FORMAT:FORMATTED              ACCESS:SEQUENTIAL          
 ACTION:READ                


 OPENED O.ic_strt_layer4.txt
 FILE TYPE:OPEN/CLOSE   UNIT 1955   STATUS:OLD                 
 FORMAT:FORMATTED              ACCESS:SEQUENTIAL          
 ACTION:READ                


 OPENED O.ic_strt_layer5.txt
 FILE TYPE:OPEN/CLOSE   UNIT 1956   STATUS:OLD                 
 FORMAT:FORMATTED              ACCESS:SEQUENTIAL          
 ACTION:READ                


 OPENED O.ic_strt_layer6.txt
 FILE TYPE:OPEN/CLOSE   UNIT 1957   STATUS:OLD                 
 FORMAT:FORMATTED              ACCESS:SEQUENTIAL          
 ACTION:READ                


 OPENED O.ic_strt_layer7.txt
 FILE TYPE:OPEN/CLOSE   UNIT 1958   STATUS:OLD                 
 FORMAT:FORMATTED              ACCESS:SEQUENTIAL          
 ACTION:READ                


 OPENED O.ic_strt_layer8.txt
 FILE TYPE:OPEN/CLOSE   UNIT 1959   STATUS:OLD                 
 FORMAT:FORMATTED              ACCESS:SEQUENTIAL          
 ACTION:READ                


 OPENED O.ic_strt_layer9.txt
 FILE TYPE:OPEN/CLOSE   UNIT 1960   STATUS:OLD                 
 FORMAT:FORMATTED              ACCESS:SEQUENTIAL          
 ACTION:READ                


 OPENED O.ic_strt_layer10.txt
 FILE TYPE:OPEN/CLOSE   UNIT 1961   STATUS:OLD                 
 FORMAT:FORMATTED              ACCESS:SEQUENTIAL          
 ACTION:READ                

 END PROCESSING GRIDDATA

 MST -- MOBILE STORAGE AND TRANSFER PACKAGE, VERSION 1, 7/29/2020 INPUT READ FROM UNIT 1123


 # File generated by Flopy version 3.5.0.dev0 on 07/12/2024 at 11:54:47.
 PROCESSING MOBILE STORAGE AND TRANSFER OPTIONS
 END OF MOBILE STORAGE AND TRANSFER OPTIONS
 PROCESSING GRIDDATA

 OPENED O.mst_porosity.txt
 FILE TYPE:OPEN/CLOSE   UNIT 1962   STATUS:OLD                 
 FORMAT:FORMATTED              ACCESS:SEQUENTIAL          
 ACTION:READ                

 END PROCESSING GRIDDATA

 SSM -- SOURCE-SINK MIXING PACKAGE, VERSION 1, 8/25/2017 INPUT READ FROM UNIT 1156


 # File generated by Flopy version 3.5.0.dev0 on 07/12/2024 at 11:54:47.
 PROCESSING SSM OPTIONS
    SSM FLOW INFORMATION WILL BE PRINTED TO LISTING FILE WHENEVER ICBCFL IS NOT ZERO.
    CELL-BY-CELL FLOW INFORMATION WILL BE SAVED TO BINARY FILE WHENEVER ICBCFL IS NOT ZERO.
 END OF SSM OPTIONS

 OPENED O.ssm_sources.txt
 FILE TYPE:OPEN/CLOSE   UNIT 1963   STATUS:OLD                 
 FORMAT:FORMATTED              ACCESS:SEQUENTIAL          
 ACTION:READ                

 PROCESSING SOURCES
 AUX SOURCE DETECTED.
    USING AUX COLUMN 2 IN PACKAGE CHD
 END PROCESSING SOURCES
 OPTIONAL FILEINPUT BLOCK NOT FOUND.  CONTINUING.
      THE LAST TIME STEP WILL BE PRINTED
      THE LAST TIME STEP WILL BE PRINTED
 # File generated by Flopy version 3.5.0.dev0 on 07/12/2024 at 11:54:47.

 PROCESSING OC OPTIONS

    BUDGET INFORMATION WILL BE WRITTEN TO:
      UNIT NUMBER: 1964
      FILE NAME: O.cbb

 OPENED O.cbb
 FILE TYPE:DATA(BINARY)   UNIT 1964   STATUS:REPLACE             
 FORMAT:UNFORMATTED            ACCESS:STREAM              
 ACTION:READWRITE           

    CONCENTRATION INFORMATION WILL BE WRITTEN TO:
      UNIT NUMBER: 1965
      FILE NAME: O.ucn

 OPENED O.ucn
 FILE TYPE:DATA(BINARY)   UNIT 1965   STATUS:REPLACE             
 FORMAT:UNFORMATTED            ACCESS:STREAM              
 ACTION:READWRITE           

 END OF OC OPTIONS

start timestep kper="1" kstp="1" mode="normal"


 BEGIN READING OUTPUT CONTROL FOR STRESS PERIOD 1
      ALL TIME STEPS WILL BE SAVED
      ALL TIME STEPS WILL BE SAVED
      ALL TIME STEPS WILL BE PRINTED
      ALL TIME STEPS WILL BE PRINTED

 END READING OUTPUT CONTROL FOR STRESS PERIOD 1

 OPENED O.cnc_stress_period_data_1.txt
 FILE TYPE:OPEN/CLOSE   UNIT 2135   STATUS:OLD                 
 FORMAT:FORMATTED              ACCESS:SEQUENTIAL          
 ACTION:READ                

 UBDSV06 SAVING  SOURCE-SINK MIX IN MODEL O                PACKAGE O               CONNECTED TO MODEL O                PACKAGE SSM              ON UNIT   1964 AT TIME STEP      1, STRESS PERIOD      1
 UBDSV06 SAVING              CNC IN MODEL O                PACKAGE O               CONNECTED TO MODEL O                PACKAGE CNC              ON UNIT   1964 AT TIME STEP      1, STRESS PERIOD      1

 SSM PACKAGE (SSM) FLOW RATES   PERIOD      1   STEP        1
 ------------------------------------------------------------------------------------------------
   NUMBER   CELLID                   BOUND Q        SSM CONC          RATE         PACKAGE NAME  
 ------------------------------------------------------------------------------------------------
     1      (1,1,1)               2.08333361E-02  55550.796       1157.3084            CHD       
     2      (2,1,1)               2.08333361E-02  55550.796       1157.3084            CHD       
     3      (3,1,1)               2.08333361E-02  55550.796       1157.3084            CHD       
     4      (4,1,1)               0.0000000       0.0000000       0.0000000            CHD       
     5      (5,1,1)               0.0000000       0.0000000       0.0000000            CHD       
     6      (6,1,1)               0.0000000       0.0000000       0.0000000            CHD       
     7      (7,1,1)               0.0000000       0.0000000       0.0000000            CHD       
     8      (8,1,1)               0.0000000       0.0000000       0.0000000            CHD       
     9      (9,1,1)               0.0000000       0.0000000       0.0000000            CHD       
     10     (10,1,1)              0.0000000       0.0000000       0.0000000            CHD       
     11     (1,1,25)             -2.08333402E-02  55390.772      -1153.9748            CHD       
     12     (2,1,25)             -2.08333402E-02  55390.772      -1153.9748            CHD       
     13     (3,1,25)             -2.08333402E-02  55390.772      -1153.9748            CHD       
     14     (4,1,25)             -2.08333403E-02  55390.772      -1153.9748            CHD       
     15     (5,1,25)             -2.08333403E-02  55390.772      -1153.9748            CHD       
     16     (6,1,25)             -2.08333403E-02  55390.772      -1153.9748            CHD       
     17     (7,1,25)             -2.08333403E-02  55390.772      -1153.9748            CHD       
     18     (8,1,25)             -2.08333403E-02  55390.772      -1153.9748            CHD       
     19     (9,1,25)             -2.08333403E-02  55390.772      -1153.9748            CHD       
     20     (10,1,25)            -2.08333403E-02  55390.772      -1153.9748            CHD       
 ------------------------------------------------------------------------------------------------




 CNC PACKAGE (CNC) FLOW RATES   PERIOD      1   STEP        1
 -----------------------------------------------
   NUMBER   CELLID                    RATE      
 -----------------------------------------------
     1      (4,1,1)               1151.6175     
     2      (5,1,1)               1153.9710     
     3      (6,1,1)               1153.9733     
     4      (7,1,1)               1153.9743     
     5      (8,1,1)               1153.9747     
     6      (9,1,1)               1153.9748     
     7      (10,1,1)              1153.9749     
 -----------------------------------------------



1
  CONCENTRATION IN LAYER   1 AT END OF TIME STEP   1 IN STRESS PERIOD    1
  ---------------------------------------------------------------------------

                1               2               3               4               5               6               7               8               9              10
               11              12              13              14              15              16              17              18              19              20
               21              22              23              24              25
 ................................................................................................................................................................
   1  55409.87261     55394.07762     55391.08287     55390.79981     55390.77492     55390.77252     55390.77198     55390.77191     55390.77205     55390.77226    
      55390.77227     55390.77212     55390.77191     55390.77183     55390.77186     55390.77189     55390.77188     55390.77184     55390.77181     55390.77183    
      55390.77186     55390.77191     55390.77196     55390.77201     55390.77203    
1
  CONCENTRATION IN LAYER   2 AT END OF TIME STEP   1 IN STRESS PERIOD    1
  ---------------------------------------------------------------------------

                1               2               3               4               5               6               7               8               9              10
               11              12              13              14              15              16              17              18              19              20
               21              22              23              24              25
 ................................................................................................................................................................
   1  55408.10125     55393.66866     55391.04872     55390.79760     55390.77501     55390.77266     55390.77194     55390.77182     55390.77207     55390.77242    
      55390.77242     55390.77215     55390.77181     55390.77169     55390.77174     55390.77180     55390.77177     55390.77171     55390.77167     55390.77169    
      55390.77176     55390.77184     55390.77191     55390.77201     55390.77203    
1
  CONCENTRATION IN LAYER   3 AT END OF TIME STEP   1 IN STRESS PERIOD    1
  ---------------------------------------------------------------------------

                1               2               3               4               5               6               7               8               9              10
               11              12              13              14              15              16              17              18              19              20
               21              22              23              24              25
 ................................................................................................................................................................
   1  55403.10549     55392.80388     55390.98929     55390.79386     55390.77514     55390.77285     55390.77187     55390.77167     55390.77211     55390.77269    
      55390.77268     55390.77219     55390.77164     55390.77146     55390.77156     55390.77166     55390.77162     55390.77150     55390.77145     55390.77149    
      55390.77160     55390.77173     55390.77185     55390.77199     55390.77203    
1
  CONCENTRATION IN LAYER   4 AT END OF TIME STEP   1 IN STRESS PERIOD    1
  ---------------------------------------------------------------------------

                1               2               3               4               5               6               7               8               9              10
               11              12              13              14              15              16              17              18              19              20
               21              22              23              24              25
 ................................................................................................................................................................
   1  55390.78359     55391.59039     55390.92981     55390.78963     55390.77512     55390.77297     55390.77178     55390.77152     55390.77214     55390.77293    
      55390.77291     55390.77224     55390.77150     55390.77128     55390.77143     55390.77157     55390.77150     55390.77134     55390.77126     55390.77132    
      55390.77146     55390.77163     55390.77178     55390.77197     55390.77203    
1
  CONCENTRATION IN LAYER   5 AT END OF TIME STEP   1 IN STRESS PERIOD    1
  ---------------------------------------------------------------------------

                1               2               3               4               5               6               7               8               9              10
               11              12              13              14              15              16              17              18              19              20
               21              22              23              24              25
 ................................................................................................................................................................
   1  55390.78359     55391.10233     55390.86492     55390.78492     55390.77492     55390.77299     55390.77171     55390.77142     55390.77215     55390.77308    
      55390.77305     55390.77227     55390.77142     55390.77118     55390.77137     55390.77153     55390.77145     55390.77126     55390.77116     55390.77122    
      55390.77138     55390.77158     55390.77174     55390.77195     55390.77203    
1
  CONCENTRATION IN LAYER   6 AT END OF TIME STEP   1 IN STRESS PERIOD    1
  ---------------------------------------------------------------------------

                1               2               3               4               5               6               7               8               9              10
               11              12              13              14              15              16              17              18              19              20
               21              22              23              24              25
 ................................................................................................................................................................
   1  55390.78359     55390.90577     55390.82156     55390.78089     55390.77459     55390.77293     55390.77168     55390.77139     55390.77216     55390.77313    
      55390.77310     55390.77229     55390.77141     55390.77117     55390.77137     55390.77154     55390.77145     55390.77125     55390.77113     55390.77120    
      55390.77136     55390.77156     55390.77172     55390.77194     55390.77203    
1
  CONCENTRATION IN LAYER   7 AT END OF TIME STEP   1 IN STRESS PERIOD    1
  ---------------------------------------------------------------------------

                1               2               3               4               5               6               7               8               9              10
               11              12              13              14              15              16              17              18              19              20
               21              22              23              24              25
 ................................................................................................................................................................
   1  55390.78359     55390.82539     55390.79802     55390.77800     55390.77422     55390.77285     55390.77169     55390.77142     55390.77216     55390.77310    
      55390.77307     55390.77229     55390.77144     55390.77121     55390.77140     55390.77157     55390.77148     55390.77128     55390.77117     55390.77123    
      55390.77138     55390.77157     55390.77173     55390.77194     55390.77203    
1
  CONCENTRATION IN LAYER   8 AT END OF TIME STEP   1 IN STRESS PERIOD    1
  ---------------------------------------------------------------------------

                1               2               3               4               5               6               7               8               9              10
               11              12              13              14              15              16              17              18              19              20
               21              22              23              24              25
 ................................................................................................................................................................
   1  55390.78359     55390.79335     55390.78539     55390.77598     55390.77385     55390.77275     55390.77172     55390.77148     55390.77215     55390.77300    
      55390.77297     55390.77227     55390.77150     55390.77129     55390.77146     55390.77161     55390.77153     55390.77135     55390.77125     55390.77130    
      55390.77144     55390.77161     55390.77175     55390.77195     55390.77203    
1
  CONCENTRATION IN LAYER   9 AT END OF TIME STEP   1 IN STRESS PERIOD    1
  ---------------------------------------------------------------------------

                1               2               3               4               5               6               7               8               9              10
               11              12              13              14              15              16              17              18              19              20
               21              22              23              24              25
 ................................................................................................................................................................
   1  55390.78359     55390.78100     55390.77902     55390.77466     55390.77346     55390.77261     55390.77179     55390.77159     55390.77213     55390.77281    
      55390.77279     55390.77223     55390.77161     55390.77142     55390.77156     55390.77168     55390.77162     55390.77148     55390.77139     55390.77143    
      55390.77154     55390.77168     55390.77180     55390.77196     55390.77203    
1
  CONCENTRATION IN LAYER  10 AT END OF TIME STEP   1 IN STRESS PERIOD    1
  ---------------------------------------------------------------------------

                1               2               3               4               5               6               7               8               9              10
               11              12              13              14              15              16              17              18              19              20
               21              22              23              24              25
 ................................................................................................................................................................
   1  55390.78359     55390.77692     55390.77626     55390.77382     55390.77297     55390.77239     55390.77190     55390.77178     55390.77208     55390.77248    
      55390.77248     55390.77217     55390.77180     55390.77167     55390.77174     55390.77182     55390.77179     55390.77171     55390.77165     55390.77167    
      55390.77174     55390.77182     55390.77189     55390.77198     55390.77203    

 CONCENTRATION WILL BE SAVED ON UNIT 1965 AT END OF TIME STEP    1, STRESS PERIOD    1


  MASS BUDGET FOR ENTIRE MODEL AT END OF TIME STEP    1, STRESS PERIOD   1
  ---------------------------------------------------------------------------------------------------

     CUMULATIVE MASS      M       RATES FOR THIS TIME STEP      M/T          PACKAGE NAME    
     ------------------                 ------------------------                     ----------------

           IN:                                      IN:
           ---                                      ---
     STORAGE-AQUEOUS =       8.1928E-02       STORAGE-AQUEOUS =       8.1928E-03     MST                              
                 CHD =       34719.2519                   CHD =        3471.9252     SSM_CHD                          
                 CNC =       80778.0822                   CNC =        8077.8082     CNC                              

            TOTAL IN =      115497.4160              TOTAL IN =       11549.7416

          OUT:                                     OUT:
          ----                                     ----
     STORAGE-AQUEOUS =          76.4596       STORAGE-AQUEOUS =           7.6460     MST                              
                 CHD =      115397.4795                   CHD =       11539.7480     SSM_CHD                          
                 CNC =          23.4768                   CNC =           2.3477     CNC                              

           TOTAL OUT =      115497.4160             TOTAL OUT =       11549.7416

            IN - OUT =       2.6193E-09              IN - OUT =       2.6012E-10

 PERCENT DISCREPANCY =           0.00     PERCENT DISCREPANCY =           0.00




         TIME SUMMARY AT END OF TIME STEP    1 IN STRESS PERIOD    1
                    SECONDS     MINUTES      HOURS       DAYS        YEARS
                    -----------------------------------------------------------
   TIME STEP LENGTH 8.64000E+05  14400.      240.00      10.000     2.73785E-02
 STRESS PERIOD TIME 8.64000E+05  14400.      240.00      10.000     2.73785E-02
         TOTAL TIME 8.64000E+05  14400.      240.00      10.000     2.73785E-02


end timestep


start timestep kper="1" kstp="2" mode="normal"

 UBDSV06 SAVING  SOURCE-SINK MIX IN MODEL O                PACKAGE O               CONNECTED TO MODEL O                PACKAGE SSM              ON UNIT   1964 AT TIME STEP      2, STRESS PERIOD      1
 UBDSV06 SAVING              CNC IN MODEL O                PACKAGE O               CONNECTED TO MODEL O                PACKAGE CNC              ON UNIT   1964 AT TIME STEP      2, STRESS PERIOD      1

 SSM PACKAGE (SSM) FLOW RATES   PERIOD      1   STEP        2
 ------------------------------------------------------------------------------------------------
   NUMBER   CELLID                   BOUND Q        SSM CONC          RATE         PACKAGE NAME  
 ------------------------------------------------------------------------------------------------
     1      (1,1,1)               2.08333319E-02  55550.796       1157.3082            CHD       
     2      (2,1,1)               2.08333319E-02  55550.796       1157.3082            CHD       
     3      (3,1,1)               2.08333319E-02  55550.796       1157.3082            CHD       
     4      (4,1,1)               0.0000000       0.0000000       0.0000000            CHD       
     5      (5,1,1)               0.0000000       0.0000000       0.0000000            CHD       
     6      (6,1,1)               0.0000000       0.0000000       0.0000000            CHD       
     7      (7,1,1)               0.0000000       0.0000000       0.0000000            CHD       
     8      (8,1,1)               0.0000000       0.0000000       0.0000000            CHD       
     9      (9,1,1)               0.0000000       0.0000000       0.0000000            CHD       
     10     (10,1,1)              0.0000000       0.0000000       0.0000000            CHD       
     11     (1,1,25)             -2.08333370E-02  55390.772      -1153.9746            CHD       
     12     (2,1,25)             -2.08333370E-02  55390.772      -1153.9746            CHD       
     13     (3,1,25)             -2.08333370E-02  55390.772      -1153.9746            CHD       
     14     (4,1,25)             -2.08333370E-02  55390.772      -1153.9746            CHD       
     15     (5,1,25)             -2.08333370E-02  55390.772      -1153.9746            CHD       
     16     (6,1,25)             -2.08333370E-02  55390.772      -1153.9746            CHD       
     17     (7,1,25)             -2.08333370E-02  55390.772      -1153.9746            CHD       
     18     (8,1,25)             -2.08333370E-02  55390.772      -1153.9746            CHD       
     19     (9,1,25)             -2.08333370E-02  55390.772      -1153.9746            CHD       
     20     (10,1,25)            -2.08333370E-02  55390.772      -1153.9746            CHD       
 ------------------------------------------------------------------------------------------------




 CNC PACKAGE (CNC) FLOW RATES   PERIOD      1   STEP        2
 -----------------------------------------------
   NUMBER   CELLID                    RATE      
 -----------------------------------------------
     1      (4,1,1)               1150.1413     
     2      (5,1,1)               1153.9620     
     3      (6,1,1)               1153.9690     
     4      (7,1,1)               1153.9721     
     5      (8,1,1)               1153.9735     
     6      (9,1,1)               1153.9742     
     7      (10,1,1)              1153.9744     
 -----------------------------------------------



1
  CONCENTRATION IN LAYER   1 AT END OF TIME STEP   2 IN STRESS PERIOD    1
  ---------------------------------------------------------------------------

                1               2               3               4               5               6               7               8               9              10
               11              12              13              14              15              16              17              18              19              20
               21              22              23              24              25
 ................................................................................................................................................................
   1  55423.22370     55398.68324     55391.77205     55390.88607     55390.78517     55390.77377     55390.77234     55390.77219     55390.77220     55390.77224    
      55390.77217     55390.77205     55390.77189     55390.77178     55390.77173     55390.77169     55390.77165     55390.77162     55390.77162     55390.77164    
      55390.77170     55390.77178     55390.77186     55390.77197     55390.77202    
1
  CONCENTRATION IN LAYER   2 AT END OF TIME STEP   2 IN STRESS PERIOD    1
  ---------------------------------------------------------------------------

                1               2               3               4               5               6               7               8               9              10
               11              12              13              14              15              16              17              18              19              20
               21              22              23              24              25
 ................................................................................................................................................................
   1  55419.47628     55397.64489     55391.66662     55390.87734     55390.78443     55390.77373     55390.77245     55390.77236     55390.77230     55390.77224    
      55390.77211     55390.77199     55390.77185     55390.77173     55390.77164     55390.77156     55390.77150     55390.77147     55390.77148     55390.77153    
      55390.77160     55390.77170     55390.77181     55390.77196     55390.77202    
1
  CONCENTRATION IN LAYER   3 AT END OF TIME STEP   2 IN STRESS PERIOD    1
  ---------------------------------------------------------------------------

                1               2               3               4               5               6               7               8               9              10
               11              12              13              14              15              16              17              18              19              20
               21              22              23              24              25
 ................................................................................................................................................................
   1  55410.10559     55395.60089     55391.48850     55390.86265     55390.78312     55390.77364     55390.77263     55390.77263     55390.77247     55390.77224    
      55390.77201     55390.77191     55390.77180     55390.77166     55390.77150     55390.77135     55390.77126     55390.77124     55390.77127     55390.77134    
      55390.77144     55390.77158     55390.77173     55390.77194     55390.77202    
1
  CONCENTRATION IN LAYER   4 AT END OF TIME STEP   2 IN STRESS PERIOD    1
  ---------------------------------------------------------------------------

                1               2               3               4               5               6               7               8               9              10
               11              12              13              14              15              16              17              18              19              20
               21              22              23              24              25
 ................................................................................................................................................................
   1  55390.78359     55392.98637     55391.31259     55390.84615     55390.78148     55390.77352     55390.77281     55390.77286     55390.77261     55390.77225    
      55390.77193     55390.77185     55390.77176     55390.77161     55390.77138     55390.77117     55390.77105     55390.77105     55390.77109     55390.77118    
      55390.77130     55390.77146     55390.77165     55390.77191     55390.77201    
1
  CONCENTRATION IN LAYER   5 AT END OF TIME STEP   2 IN STRESS PERIOD    1
  ---------------------------------------------------------------------------

                1               2               3               4               5               6               7               8               9              10
               11              12              13              14              15              16              17              18              19              20
               21              22              23              24              25
 ................................................................................................................................................................
   1  55390.78359     55391.77526     55391.11300     55390.82749     55390.77969     55390.77338     55390.77292     55390.77297     55390.77269     55390.77226    
      55390.77190     55390.77183     55390.77175     55390.77158     55390.77132     55390.77107     55390.77094     55390.77093     55390.77098     55390.77108    
      55390.77121     55390.77139     55390.77159     55390.77188     55390.77201    
1
  CONCENTRATION IN LAYER   6 AT END OF TIME STEP   2 IN STRESS PERIOD    1
  ---------------------------------------------------------------------------

                1               2               3               4               5               6               7               8               9              10
               11              12              13              14              15              16              17              18              19              20
               21              22              23              24              25
 ................................................................................................................................................................
   1  55390.78359     55391.22176     55390.96905     55390.81048     55390.77795     55390.77322     55390.77295     55390.77300     55390.77271     55390.77227    
      55390.77191     55390.77184     55390.77176     55390.77158     55390.77130     55390.77105     55390.77091     55390.77090     55390.77095     55390.77105    
      55390.77118     55390.77136     55390.77156     55390.77187     55390.77201    
1
  CONCENTRATION IN LAYER   7 AT END OF TIME STEP   2 IN STRESS PERIOD    1
  ---------------------------------------------------------------------------

                1               2               3               4               5               6               7               8               9              10
               11              12              13              14              15              16              17              18              19              20
               21              22              23              24              25
 ................................................................................................................................................................
   1  55390.78359     55390.97045     55390.88198     55390.79726     55390.77644     55390.77305     55390.77292     55390.77296     55390.77268     55390.77228    
      55390.77193     55390.77185     55390.77177     55390.77160     55390.77133     55390.77109     55390.77095     55390.77094     55390.77098     55390.77108    
      55390.77120     55390.77138     55390.77157     55390.77187     55390.77201    
1
  CONCENTRATION IN LAYER   8 AT END OF TIME STEP   2 IN STRESS PERIOD    1
  ---------------------------------------------------------------------------

                1               2               3               4               5               6               7               8               9              10
               11              12              13              14              15              16              17              18              19              20
               21              22              23              24              25
 ................................................................................................................................................................
   1  55390.78359     55390.85915     55390.83247     55390.78808     55390.77526     55390.77290     55390.77284     55390.77287     55390.77262     55390.77226    
      55390.77196     55390.77188     55390.77180     55390.77164     55390.77139     55390.77117     55390.77105     55390.77103     55390.77107     55390.77116    
      55390.77127     55390.77143     55390.77160     55390.77187     55390.77201    
1
  CONCENTRATION IN LAYER   9 AT END OF TIME STEP   2 IN STRESS PERIOD    1
  ---------------------------------------------------------------------------

                1               2               3               4               5               6               7               8               9              10
               11              12              13              14              15              16              17              18              19              20
               21              22              23              24              25
 ................................................................................................................................................................
   1  55390.78359     55390.81207     55390.80602     55390.78265     55390.77449     55390.77278     55390.77268     55390.77270     55390.77251     55390.77226    
      55390.77202     55390.77193     55390.77182     55390.77168     55390.77148     55390.77131     55390.77120     55390.77118     55390.77121     55390.77128    
      55390.77138     55390.77151     55390.77166     55390.77189     55390.77201    
1
  CONCENTRATION IN LAYER  10 AT END OF TIME STEP   2 IN STRESS PERIOD    1
  ---------------------------------------------------------------------------

                1               2               3               4               5               6               7               8               9              10
               11              12              13              14              15              16              17              18              19              20
               21              22              23              24              25
 ................................................................................................................................................................
   1  55390.78359     55390.79498     55390.79458     55390.78024     55390.77419     55390.77271     55390.77240     55390.77234     55390.77233     55390.77233    
      55390.77220     55390.77204     55390.77183     55390.77169     55390.77159     55390.77151     55390.77144     55390.77140     55390.77139     55390.77144    
      55390.77152     55390.77163     55390.77175     55390.77192     55390.77201    

 CONCENTRATION WILL BE SAVED ON UNIT 1965 AT END OF TIME STEP    2, STRESS PERIOD    1


  MASS BUDGET FOR ENTIRE MODEL AT END OF TIME STEP    2, STRESS PERIOD   1
  ---------------------------------------------------------------------------------------------------

     CUMULATIVE MASS      M       RATES FOR THIS TIME STEP      M/T          PACKAGE NAME    
     ------------------                 ------------------------                     ----------------

           IN:                                      IN:
           ---                                      ---
     STORAGE-AQUEOUS =           0.1332       STORAGE-AQUEOUS =       5.1231E-03     MST                              
                 CHD =       69438.4968                   CHD =        3471.9245     SSM_CHD                          
                 CNC =      161555.8039                   CNC =        8077.7722     CNC                              

            TOTAL IN =      230994.4339              TOTAL IN =       11549.7018

          OUT:                                     OUT:
          ----                                     ----
     STORAGE-AQUEOUS =         137.9589       STORAGE-AQUEOUS =           6.1499     MST                              
                 CHD =      230794.9416                   CHD =       11539.7462     SSM_CHD                          
                 CNC =          61.5333                   CNC =           3.8056     CNC                              

           TOTAL OUT =      230994.4339             TOTAL OUT =       11549.7018

            IN - OUT =       5.0059E-09              IN - OUT =       2.4193E-10

 PERCENT DISCREPANCY =           0.00     PERCENT DISCREPANCY =           0.00




         TIME SUMMARY AT END OF TIME STEP    2 IN STRESS PERIOD    1
                    SECONDS     MINUTES      HOURS       DAYS        YEARS
                    -----------------------------------------------------------
   TIME STEP LENGTH 8.64000E+05  14400.      240.00      10.000     2.73785E-02
 STRESS PERIOD TIME 1.72800E+06  28800.      480.00      20.000     5.47570E-02
         TOTAL TIME 1.72800E+06  28800.      480.00      20.000     5.47570E-02


end timestep


start timestep kper="1" kstp="3" mode="normal"

 UBDSV06 SAVING  SOURCE-SINK MIX IN MODEL O                PACKAGE O               CONNECTED TO MODEL O                PACKAGE SSM              ON UNIT   1964 AT TIME STEP      3, STRESS PERIOD      1
 UBDSV06 SAVING              CNC IN MODEL O                PACKAGE O               CONNECTED TO MODEL O                PACKAGE CNC              ON UNIT   1964 AT TIME STEP      3, STRESS PERIOD      1

 SSM PACKAGE (SSM) FLOW RATES   PERIOD      1   STEP        3
 ------------------------------------------------------------------------------------------------
   NUMBER   CELLID                   BOUND Q        SSM CONC          RATE         PACKAGE NAME  
 ------------------------------------------------------------------------------------------------
     1      (1,1,1)               2.08333325E-02  55550.796       1157.3082            CHD       
     2      (2,1,1)               2.08333325E-02  55550.796       1157.3082            CHD       
     3      (3,1,1)               2.08333325E-02  55550.796       1157.3082            CHD       
     4      (4,1,1)               0.0000000       0.0000000       0.0000000            CHD       
     5      (5,1,1)               0.0000000       0.0000000       0.0000000            CHD       
     6      (6,1,1)               0.0000000       0.0000000       0.0000000            CHD       
     7      (7,1,1)               0.0000000       0.0000000       0.0000000            CHD       
     8      (8,1,1)               0.0000000       0.0000000       0.0000000            CHD       
     9      (9,1,1)               0.0000000       0.0000000       0.0000000            CHD       
     10     (10,1,1)              0.0000000       0.0000000       0.0000000            CHD       
     11     (1,1,25)             -2.08333362E-02  55390.772      -1153.9746            CHD       
     12     (2,1,25)             -2.08333362E-02  55390.772      -1153.9746            CHD       
     13     (3,1,25)             -2.08333362E-02  55390.772      -1153.9746            CHD       
     14     (4,1,25)             -2.08333362E-02  55390.772      -1153.9746            CHD       
     15     (5,1,25)             -2.08333362E-02  55390.772      -1153.9746            CHD       
     16     (6,1,25)             -2.08333362E-02  55390.772      -1153.9746            CHD       
     17     (7,1,25)             -2.08333362E-02  55390.772      -1153.9746            CHD       
     18     (8,1,25)             -2.08333362E-02  55390.772      -1153.9746            CHD       
     19     (9,1,25)             -2.08333362E-02  55390.772      -1153.9746            CHD       
     20     (10,1,25)            -2.08333362E-02  55390.772      -1153.9746            CHD       
 ------------------------------------------------------------------------------------------------




 CNC PACKAGE (CNC) FLOW RATES   PERIOD      1   STEP        3
 -----------------------------------------------
   NUMBER   CELLID                    RATE      
 -----------------------------------------------
     1      (4,1,1)               1149.2034     
     2      (5,1,1)               1153.9503     
     3      (6,1,1)               1153.9628     
     4      (7,1,1)               1153.9690     
     5      (8,1,1)               1153.9720     
     6      (9,1,1)               1153.9733     
     7      (10,1,1)              1153.9739     
 -----------------------------------------------



1
  CONCENTRATION IN LAYER   1 AT END OF TIME STEP   3 IN STRESS PERIOD    1
  ---------------------------------------------------------------------------

                1               2               3               4               5               6               7               8               9              10
               11              12              13              14              15              16              17              18              19              20
               21              22              23              24              25
 ................................................................................................................................................................
   1  55427.02622     55403.45591     55392.82484     55391.06189     55390.81122     55390.77744     55390.77296     55390.77234     55390.77225     55390.77224    
      55390.77216     55390.77203     55390.77185     55390.77169     55390.77159     55390.77152     55390.77147     55390.77143     55390.77143     55390.77147    
      55390.77155     55390.77165     55390.77177     55390.77193     55390.77201    
1
  CONCENTRATION IN LAYER   2 AT END OF TIME STEP   3 IN STRESS PERIOD    1
  ---------------------------------------------------------------------------

                1               2               3               4               5               6               7               8               9              10
               11              12              13              14              15              16              17              18              19              20
               21              22              23              24              25
 ................................................................................................................................................................
   1  55427.05283     55401.77374     55392.61464     55391.04131     55390.80919     55390.77728     55390.77302     55390.77241     55390.77228     55390.77224    
      55390.77214     55390.77200     55390.77180     55390.77161     55390.77148     55390.77140     55390.77134     55390.77131     55390.77131     55390.77136    
      55390.77145     55390.77158     55390.77173     55390.77191     55390.77201    
1
  CONCENTRATION IN LAYER   3 AT END OF TIME STEP   3 IN STRESS PERIOD    1
  ---------------------------------------------------------------------------

                1               2               3               4               5               6               7               8               9              10
               11              12              13              14              15              16              17              18              19              20
               21              22              23              24              25
 ................................................................................................................................................................
   1  55414.50508     55398.58446     55392.26467     55391.00664     55390.80556     55390.77697     55390.77311     55390.77251     55390.77233     55390.77224    
      55390.77212     55390.77195     55390.77172     55390.77149     55390.77132     55390.77120     55390.77114     55390.77111     55390.77112     55390.77119    
      55390.77130     55390.77147     55390.77165     55390.77188     55390.77200    
1
  CONCENTRATION IN LAYER   4 AT END OF TIME STEP   3 IN STRESS PERIOD    1
  ---------------------------------------------------------------------------

                1               2               3               4               5               6               7               8               9              10
               11              12              13              14              15              16              17              18              19              20
               21              22              23              24              25
 ................................................................................................................................................................
   1  55390.78359     55394.66825     55391.92360     55390.96725     55390.80091     55390.77652     55390.77318     55390.77260     55390.77238     55390.77226    
      55390.77210     55390.77192     55390.77166     55390.77139     55390.77117     55390.77103     55390.77095     55390.77093     55390.77095     55390.77102    
      55390.77116     55390.77136     55390.77157     55390.77185     55390.77200    
1
  CONCENTRATION IN LAYER   5 AT END OF TIME STEP   3 IN STRESS PERIOD    1
  ---------------------------------------------------------------------------

                1               2               3               4               5               6               7               8               9              10
               11              12              13              14              15              16              17              18              19              20
               21              22              23              24              25
 ................................................................................................................................................................
   1  55390.78359     55392.68620     55391.53383     55390.92235     55390.79574     55390.77597     55390.77320     55390.77266     55390.77242     55390.77228    
      55390.77210     55390.77191     55390.77163     55390.77133     55390.77109     55390.77093     55390.77084     55390.77081     55390.77083     55390.77092    
      55390.77107     55390.77128     55390.77152     55390.77183     55390.77199    
1
  CONCENTRATION IN LAYER   6 AT END OF TIME STEP   3 IN STRESS PERIOD    1
  ---------------------------------------------------------------------------

                1               2               3               4               5               6               7               8               9              10
               11              12              13              14              15              16              17              18              19              20
               21              22              23              24              25
 ................................................................................................................................................................
   1  55390.78359     55391.69998     55391.23619     55390.87998     55390.79061     55390.77538     55390.77317     55390.77268     55390.77244     55390.77229    
      55390.77211     55390.77192     55390.77162     55390.77132     55390.77107     55390.77090     55390.77081     55390.77077     55390.77079     55390.77088    
      55390.77103     55390.77125     55390.77149     55390.77181     55390.77199    
1
  CONCENTRATION IN LAYER   7 AT END OF TIME STEP   3 IN STRESS PERIOD    1
  ---------------------------------------------------------------------------

                1               2               3               4               5               6               7               8               9              10
               11              12              13              14              15              16              17              18              19              20
               21              22              23              24              25
 ................................................................................................................................................................
   1  55390.78359     55391.21575     55391.04316     55390.84562     55390.78609     55390.77482     55390.77310     55390.77265     55390.77244     55390.77230    
      55390.77213     55390.77193     55390.77164     55390.77134     55390.77109     55390.77093     55390.77084     55390.77081     55390.77082     55390.77090    
      55390.77105     55390.77126     55390.77149     55390.77181     55390.77199    
1
  CONCENTRATION IN LAYER   8 AT END OF TIME STEP   3 IN STRESS PERIOD    1
  ---------------------------------------------------------------------------

                1               2               3               4               5               6               7               8               9              10
               11              12              13              14              15              16              17              18              19              20
               21              22              23              24              25
 ................................................................................................................................................................
   1  55390.78359     55390.98392     55390.92778     55390.82095     55390.78253     55390.77434     55390.77299     55390.77259     55390.77241     55390.77230    
      55390.77214     55390.77196     55390.77168     55390.77139     55390.77116     55390.77102     55390.77093     55390.77089     55390.77090     55390.77097    
      55390.77111     55390.77131     55390.77152     55390.77182     55390.77199    
1
  CONCENTRATION IN LAYER   9 AT END OF TIME STEP   3 IN STRESS PERIOD    1
  ---------------------------------------------------------------------------

                1               2               3               4               5               6               7               8               9              10
               11              12              13              14              15              16              17              18              19              20
               21              22              23              24              25
 ................................................................................................................................................................
   1  55390.78359     55390.87778     55390.86497     55390.80553     55390.78012     55390.77398     55390.77285     55390.77251     55390.77237     55390.77230    
      55390.77217     55390.77198     55390.77172     55390.77146     55390.77127     55390.77114     55390.77106     55390.77102     55390.77103     55390.77109    
      55390.77121     55390.77138     55390.77157     55390.77183     55390.77199    
1
  CONCENTRATION IN LAYER  10 AT END OF TIME STEP   3 IN STRESS PERIOD    1
  ---------------------------------------------------------------------------

                1               2               3               4               5               6               7               8               9              10
               11              12              13              14              15              16              17              18              19              20
               21              22              23              24              25
 ................................................................................................................................................................
   1  55390.78359     55390.83731     55390.83669     55390.79864     55390.77890     55390.77374     55390.77272     55390.77245     55390.77236     55390.77231    
      55390.77219     55390.77201     55390.77178     55390.77156     55390.77141     55390.77130     55390.77122     55390.77118     55390.77118     55390.77122    
      55390.77132     55390.77147     55390.77163     55390.77185     55390.77199    

 CONCENTRATION WILL BE SAVED ON UNIT 1965 AT END OF TIME STEP    3, STRESS PERIOD    1


  MASS BUDGET FOR ENTIRE MODEL AT END OF TIME STEP    3, STRESS PERIOD   1
  ---------------------------------------------------------------------------------------------------

     CUMULATIVE MASS      M       RATES FOR THIS TIME STEP      M/T          PACKAGE NAME    
     ------------------                 ------------------------                     ----------------

           IN:                                      IN:
           ---                                      ---
     STORAGE-AQUEOUS =           0.1617       STORAGE-AQUEOUS =       2.8539E-03     MST                              
                 CHD =      104157.7427                   CHD =        3471.9246     SSM_CHD                          
                 CNC =      242333.0698                   CNC =        8077.7266     CNC                              

            TOTAL IN =      346490.9741              TOTAL IN =       11549.6540

          OUT:                                     OUT:
          ----                                     ----
     STORAGE-AQUEOUS =         189.8226       STORAGE-AQUEOUS =           5.1864     MST                              
                 CHD =      346192.3992                   CHD =       11539.7458     SSM_CHD                          
                 CNC =         108.7522                   CNC =           4.7219     CNC                              

           TOTAL OUT =      346490.9741             TOTAL OUT =       11549.6540

            IN - OUT =       9.1968E-09              IN - OUT =       4.1109E-10

 PERCENT DISCREPANCY =           0.00     PERCENT DISCREPANCY =           0.00




         TIME SUMMARY AT END OF TIME STEP    3 IN STRESS PERIOD    1
                    SECONDS     MINUTES      HOURS       DAYS        YEARS
                    -----------------------------------------------------------
   TIME STEP LENGTH 8.64000E+05  14400.      240.00      10.000     2.73785E-02
 STRESS PERIOD TIME 2.59200E+06  43200.      720.00      30.000     8.21355E-02
         TOTAL TIME 2.59200E+06  43200.      720.00      30.000     8.21355E-02


end timestep


start timestep kper="1" kstp="4" mode="normal"

 UBDSV06 SAVING  SOURCE-SINK MIX IN MODEL O                PACKAGE O               CONNECTED TO MODEL O                PACKAGE SSM              ON UNIT   1964 AT TIME STEP      4, STRESS PERIOD      1
 UBDSV06 SAVING              CNC IN MODEL O                PACKAGE O               CONNECTED TO MODEL O                PACKAGE CNC              ON UNIT   1964 AT TIME STEP      4, STRESS PERIOD      1

 SSM PACKAGE (SSM) FLOW RATES   PERIOD      1   STEP        4
 ------------------------------------------------------------------------------------------------
   NUMBER   CELLID                   BOUND Q        SSM CONC          RATE         PACKAGE NAME  
 ------------------------------------------------------------------------------------------------
     1      (1,1,1)               2.08333321E-02  55550.796       1157.3082            CHD       
     2      (2,1,1)               2.08333321E-02  55550.796       1157.3082            CHD       
     3      (3,1,1)               2.08333321E-02  55550.796       1157.3082            CHD       
     4      (4,1,1)               0.0000000       0.0000000       0.0000000            CHD       
     5      (5,1,1)               0.0000000       0.0000000       0.0000000            CHD       
     6      (6,1,1)               0.0000000       0.0000000       0.0000000            CHD       
     7      (7,1,1)               0.0000000       0.0000000       0.0000000            CHD       
     8      (8,1,1)               0.0000000       0.0000000       0.0000000            CHD       
     9      (9,1,1)               0.0000000       0.0000000       0.0000000            CHD       
     10     (10,1,1)              0.0000000       0.0000000       0.0000000            CHD       
     11     (1,1,25)             -2.08333356E-02  55390.772      -1153.9745            CHD       
     12     (2,1,25)             -2.08333356E-02  55390.772      -1153.9745            CHD       
     13     (3,1,25)             -2.08333356E-02  55390.772      -1153.9745            CHD       
     14     (4,1,25)             -2.08333356E-02  55390.772      -1153.9745            CHD       
     15     (5,1,25)             -2.08333356E-02  55390.772      -1153.9745            CHD       
     16     (6,1,25)             -2.08333356E-02  55390.772      -1153.9745            CHD       
     17     (7,1,25)             -2.08333356E-02  55390.772      -1153.9745            CHD       
     18     (8,1,25)             -2.08333356E-02  55390.772      -1153.9745            CHD       
     19     (9,1,25)             -2.08333356E-02  55390.772      -1153.9745            CHD       
     20     (10,1,25)            -2.08333356E-02  55390.772      -1153.9745            CHD       
 ------------------------------------------------------------------------------------------------




 CNC PACKAGE (CNC) FLOW RATES   PERIOD      1   STEP        4
 -----------------------------------------------
   NUMBER   CELLID                    RATE      
 -----------------------------------------------
     1      (4,1,1)               1148.6501     
     2      (5,1,1)               1153.9372     
     3      (6,1,1)               1153.9553     
     4      (7,1,1)               1153.9648     
     5      (8,1,1)               1153.9696     
     6      (9,1,1)               1153.9719     
     7      (10,1,1)              1153.9729     
 -----------------------------------------------



1
  CONCENTRATION IN LAYER   1 AT END OF TIME STEP   4 IN STRESS PERIOD    1
  ---------------------------------------------------------------------------

                1               2               3               4               5               6               7               8               9              10
               11              12              13              14              15              16              17              18              19              20
               21              22              23              24              25
 ................................................................................................................................................................
   1  55424.02157     55407.52891     55394.11322     55391.34285     55390.86220     55390.78574     55390.77430     55390.77261     55390.77232     55390.77223    
      55390.77213     55390.77198     55390.77179     55390.77161     55390.77147     55390.77138     55390.77131     55390.77127     55390.77128     55390.77132    
      55390.77141     55390.77154     55390.77169     55390.77187     55390.77199    
1
  CONCENTRATION IN LAYER   2 AT END OF TIME STEP   4 IN STRESS PERIOD    1
  ---------------------------------------------------------------------------

                1               2               3               4               5               6               7               8               9              10
               11              12              13              14              15              16              17              18              19              20
               21              22              23              24              25
 ................................................................................................................................................................
   1  55427.13578     55405.40475     55393.79119     55391.30574     55390.85786     55390.78523     55390.77428     55390.77266     55390.77235     55390.77223    
      55390.77210     55390.77193     55390.77174     55390.77154     55390.77139     55390.77127     55390.77119     55390.77116     55390.77117     55390.77123    
      55390.77133     55390.77148     55390.77165     55390.77186     55390.77198    
1
  CONCENTRATION IN LAYER   3 AT END OF TIME STEP   4 IN STRESS PERIOD    1
  ---------------------------------------------------------------------------

                1               2               3               4               5               6               7               8               9              10
               11              12              13              14              15              16              17              18              19              20
               21              22              23              24              25
 ................................................................................................................................................................
   1  55417.05846     55401.33310     55393.25445     55391.24279     55390.85002     55390.78429     55390.77424     55390.77273     55390.77239     55390.77223    
      55390.77205     55390.77186     55390.77165     55390.77143     55390.77125     55390.77111     55390.77102     55390.77098     55390.77100     55390.77108    
      55390.77120     55390.77138     55390.77158     55390.77183     55390.77198    
1
  CONCENTRATION IN LAYER   4 AT END OF TIME STEP   4 IN STRESS PERIOD    1
  ---------------------------------------------------------------------------

                1               2               3               4               5               6               7               8               9              10
               11              12              13              14              15              16              17              18              19              20
               21              22              23              24              25
 ................................................................................................................................................................
   1  55390.78359     55396.37542     55392.71823     55391.16954     55390.83990     55390.78301     55390.77416     55390.77280     55390.77243     55390.77223    
      55390.77201     55390.77181     55390.77157     55390.77134     55390.77112     55390.77096     55390.77085     55390.77081     55390.77084     55390.77093    
      55390.77108     55390.77128     55390.77151     55390.77180     55390.77197    
1
  CONCENTRATION IN LAYER   5 AT END OF TIME STEP   4 IN STRESS PERIOD    1
  ---------------------------------------------------------------------------

                1               2               3               4               5               6               7               8               9              10
               11              12              13              14              15              16              17              18              19              20
               21              22              23              24              25
 ................................................................................................................................................................
   1  55390.78359     55393.70021     55392.10638     55391.08531     55390.82854     55390.78155     55390.77404     55390.77284     55390.77247     55390.77224    
      55390.77200     55390.77178     55390.77153     55390.77128     55390.77104     55390.77086     55390.77074     55390.77070     55390.77073     55390.77083    
      55390.77099     55390.77121     55390.77145     55390.77177     55390.77196    
1
  CONCENTRATION IN LAYER   6 AT END OF TIME STEP   4 IN STRESS PERIOD    1
  ---------------------------------------------------------------------------

                1               2               3               4               5               6               7               8               9              10
               11              12              13              14              15              16              17              18              19              20
               21              22              23              24              25
 ................................................................................................................................................................
   1  55390.78359     55392.28159     55391.61980     55391.00379     55390.81715     55390.78005     55390.77388     55390.77285     55390.77248     55390.77225    
      55390.77201     55390.77178     55390.77153     55390.77127     55390.77102     55390.77083     55390.77070     55390.77066     55390.77069     55390.77079    
      55390.77095     55390.77117     55390.77143     55390.77176     55390.77196    
1
  CONCENTRATION IN LAYER   7 AT END OF TIME STEP   4 IN STRESS PERIOD    1
  ---------------------------------------------------------------------------

                1               2               3               4               5               6               7               8               9              10
               11              12              13              14              15              16              17              18              19              20
               21              22              23              24              25
 ................................................................................................................................................................
   1  55390.78359     55391.54111     55391.28814     55390.93558     55390.80694     55390.77866     55390.77370     55390.77282     55390.77248     55390.77226    
      55390.77202     55390.77180     55390.77155     55390.77128     55390.77104     55390.77085     55390.77073     55390.77068     55390.77071     55390.77080    
      55390.77096     55390.77118     55390.77143     55390.77175     55390.77196    
1
  CONCENTRATION IN LAYER   8 AT END OF TIME STEP   4 IN STRESS PERIOD    1
  ---------------------------------------------------------------------------

                1               2               3               4               5               6               7               8               9              10
               11              12              13              14              15              16              17              18              19              20
               21              22              23              24              25
 ................................................................................................................................................................
   1  55390.78359     55391.16461     55391.08140     55390.88506     55390.79878     55390.77751     55390.77352     55390.77276     55390.77246     55390.77227    
      55390.77205     55390.77183     55390.77158     55390.77133     55390.77110     55390.77092     55390.77080     55390.77076     55390.77078     55390.77086    
      55390.77101     55390.77122     55390.77145     55390.77176     55390.77196    
1
  CONCENTRATION IN LAYER   9 AT END OF TIME STEP   4 IN STRESS PERIOD    1
  ---------------------------------------------------------------------------

                1               2               3               4               5               6               7               8               9              10
               11              12              13              14              15              16              17              18              19              20
               21              22              23              24              25
 ................................................................................................................................................................
   1  55390.78359     55390.98291     55390.96426     55390.85297     55390.79322     55390.77669     55390.77336     55390.77268     55390.77243     55390.77228    
      55390.77208     55390.77188     55390.77164     55390.77140     55390.77119     55390.77103     55390.77092     55390.77087     55390.77088     55390.77096    
      55390.77109     55390.77128     55390.77149     55390.77177     55390.77196    
1
  CONCENTRATION IN LAYER  10 AT END OF TIME STEP   4 IN STRESS PERIOD    1
  ---------------------------------------------------------------------------

                1               2               3               4               5               6               7               8               9              10
               11              12              13              14              15              16              17              18              19              20
               21              22              23              24              25
 ................................................................................................................................................................
   1  55390.78359     55390.91048     55390.91085     55390.83807     55390.79045     55390.77626     55390.77326     55390.77262     55390.77241     55390.77229    
      55390.77213     55390.77194     55390.77171     55390.77148     55390.77129     55390.77114     55390.77104     55390.77099     55390.77100     55390.77106    
      55390.77118     55390.77135     55390.77154     55390.77179     55390.77196    

 CONCENTRATION WILL BE SAVED ON UNIT 1965 AT END OF TIME STEP    4, STRESS PERIOD    1


  MASS BUDGET FOR ENTIRE MODEL AT END OF TIME STEP    4, STRESS PERIOD   1
  ---------------------------------------------------------------------------------------------------

     CUMULATIVE MASS      M       RATES FOR THIS TIME STEP      M/T          PACKAGE NAME    
     ------------------                 ------------------------                     ----------------

           IN:                                      IN:
           ---                                      ---
     STORAGE-AQUEOUS =           0.1809       STORAGE-AQUEOUS =       1.9212E-03     MST                              
                 CHD =      138876.9879                   CHD =        3471.9245     SSM_CHD                          
                 CNC =      323109.8195                   CNC =        8077.6750     CNC                              

            TOTAL IN =      461986.9883              TOTAL IN =       11549.6014

          OUT:                                     OUT:
          ----                                     ----
     STORAGE-AQUEOUS =         235.8506       STORAGE-AQUEOUS =           4.6028     MST                              
                 CHD =      461589.8536                   CHD =       11539.7454     SSM_CHD                          
                 CNC =         161.2842                   CNC =           5.2532     CNC                              

           TOTAL OUT =      461986.9883             TOTAL OUT =       11549.6014

            IN - OUT =       1.1292E-08              IN - OUT =       2.1828E-10

 PERCENT DISCREPANCY =           0.00     PERCENT DISCREPANCY =           0.00




         TIME SUMMARY AT END OF TIME STEP    4 IN STRESS PERIOD    1
                    SECONDS     MINUTES      HOURS       DAYS        YEARS
                    -----------------------------------------------------------
   TIME STEP LENGTH 8.64000E+05  14400.      240.00      10.000     2.73785E-02
 STRESS PERIOD TIME 3.45600E+06  57600.      960.00      40.000     0.10951    
         TOTAL TIME 3.45600E+06  57600.      960.00      40.000     0.10951    


end timestep


start timestep kper="1" kstp="5" mode="normal"

 UBDSV06 SAVING  SOURCE-SINK MIX IN MODEL O                PACKAGE O               CONNECTED TO MODEL O                PACKAGE SSM              ON UNIT   1964 AT TIME STEP      5, STRESS PERIOD      1
 UBDSV06 SAVING              CNC IN MODEL O                PACKAGE O               CONNECTED TO MODEL O                PACKAGE CNC              ON UNIT   1964 AT TIME STEP      5, STRESS PERIOD      1

 SSM PACKAGE (SSM) FLOW RATES   PERIOD      1   STEP        5
 ------------------------------------------------------------------------------------------------
   NUMBER   CELLID                   BOUND Q        SSM CONC          RATE         PACKAGE NAME  
 ------------------------------------------------------------------------------------------------
     1      (1,1,1)               2.08333321E-02  55550.796       1157.3082            CHD       
     2      (2,1,1)               2.08333321E-02  55550.796       1157.3082            CHD       
     3      (3,1,1)               2.08333321E-02  55550.796       1157.3082            CHD       
     4      (4,1,1)               0.0000000       0.0000000       0.0000000            CHD       
     5      (5,1,1)               0.0000000       0.0000000       0.0000000            CHD       
     6      (6,1,1)               0.0000000       0.0000000       0.0000000            CHD       
     7      (7,1,1)               0.0000000       0.0000000       0.0000000            CHD       
     8      (8,1,1)               0.0000000       0.0000000       0.0000000            CHD       
     9      (9,1,1)               0.0000000       0.0000000       0.0000000            CHD       
     10     (10,1,1)              0.0000000       0.0000000       0.0000000            CHD       
     11     (1,1,25)             -2.08333353E-02  55390.772      -1153.9745            CHD       
     12     (2,1,25)             -2.08333353E-02  55390.772      -1153.9745            CHD       
[...]
               21              22              23              24              25
 ................................................................................................................................................................
   1  55390.78359     55393.67244     55397.81312     55401.10839     55403.23552     55404.50696     55405.26462     55405.70709     55405.95846     55406.10277    
      55406.19336     55406.26021     55406.31688     55406.36336     55406.39816     55406.39553     55406.38179     55406.33422     55406.23632     55406.08015    
      55405.84110     55405.51574     55405.09862     55404.59656     55404.05993    

 CONCENTRATION WILL BE SAVED ON UNIT 1965 AT END OF TIME STEP  199, STRESS PERIOD    1


  MASS BUDGET FOR ENTIRE MODEL AT END OF TIME STEP  199, STRESS PERIOD   1
  ---------------------------------------------------------------------------------------------------

     CUMULATIVE MASS      M       RATES FOR THIS TIME STEP      M/T          PACKAGE NAME    
     ------------------                 ------------------------                     ----------------

           IN:                                      IN:
           ---                                      ---
     STORAGE-AQUEOUS =        2150.8291       STORAGE-AQUEOUS =           1.2958     MST                              
                 CHD =     6909130.0281                   CHD =        3471.9247     SSM_CHD                          
                 CNC =    16073676.9460                   CNC =        8077.2433     CNC                              

            TOTAL IN =    22984957.8032              TOTAL IN =       11550.4637

          OUT:                                     OUT:
          ----                                     ----
     STORAGE-AQUEOUS =        7052.6381       STORAGE-AQUEOUS =           1.6960     MST                              
                 CHD =    22965412.9584                   CHD =       11542.5127     SSM_CHD                          
                 CNC =       12492.2067                   CNC =           6.2551     CNC                              

           TOTAL OUT =    22984957.8032             TOTAL OUT =       11550.4637

            IN - OUT =       1.3076E-06              IN - OUT =      -1.1823E-10

 PERCENT DISCREPANCY =           0.00     PERCENT DISCREPANCY =          -0.00




         TIME SUMMARY AT END OF TIME STEP  199 IN STRESS PERIOD    1
                    SECONDS     MINUTES      HOURS       DAYS        YEARS
                    -----------------------------------------------------------
   TIME STEP LENGTH 8.64000E+05  14400.      240.00      10.000     2.73785E-02
 STRESS PERIOD TIME 1.71936E+08 2.86560E+06  47760.      1990.0      5.4483    
         TOTAL TIME 1.71936E+08 2.86560E+06  47760.      1990.0      5.4483    


end timestep


start timestep kper="1" kstp="200" mode="normal"

 UBDSV06 SAVING  SOURCE-SINK MIX IN MODEL O                PACKAGE O               CONNECTED TO MODEL O                PACKAGE SSM              ON UNIT   1964 AT TIME STEP    200, STRESS PERIOD      1
 UBDSV06 SAVING              CNC IN MODEL O                PACKAGE O               CONNECTED TO MODEL O                PACKAGE CNC              ON UNIT   1964 AT TIME STEP    200, STRESS PERIOD      1

 SSM PACKAGE (SSM) FLOW RATES   PERIOD      1   STEP      200
 ------------------------------------------------------------------------------------------------
   NUMBER   CELLID                   BOUND Q        SSM CONC          RATE         PACKAGE NAME  
 ------------------------------------------------------------------------------------------------
     1      (1,1,1)               2.08333330E-02  55550.796       1157.3082            CHD       
     2      (2,1,1)               2.08333330E-02  55550.796       1157.3082            CHD       
     3      (3,1,1)               2.08333330E-02  55550.796       1157.3082            CHD       
     4      (4,1,1)               0.0000000       0.0000000       0.0000000            CHD       
     5      (5,1,1)               0.0000000       0.0000000       0.0000000            CHD       
     6      (6,1,1)               0.0000000       0.0000000       0.0000000            CHD       
     7      (7,1,1)               0.0000000       0.0000000       0.0000000            CHD       
     8      (8,1,1)               0.0000000       0.0000000       0.0000000            CHD       
     9      (9,1,1)               0.0000000       0.0000000       0.0000000            CHD       
     10     (10,1,1)              0.0000000       0.0000000       0.0000000            CHD       
     11     (1,1,25)             -2.08333337E-02  55404.149      -1154.2531            CHD       
     12     (2,1,25)             -2.08333337E-02  55404.149      -1154.2531            CHD       
     13     (3,1,25)             -2.08333337E-02  55404.149      -1154.2531            CHD       
     14     (4,1,25)             -2.08333337E-02  55404.149      -1154.2531            CHD       
     15     (5,1,25)             -2.08333337E-02  55404.149      -1154.2531            CHD       
     16     (6,1,25)             -2.08333337E-02  55404.149      -1154.2531            CHD       
     17     (7,1,25)             -2.08333337E-02  55404.149      -1154.2531            CHD       
     18     (8,1,25)             -2.08333337E-02  55404.149      -1154.2531            CHD       
     19     (9,1,25)             -2.08333337E-02  55404.149      -1154.2531            CHD       
     20     (10,1,25)            -2.08333337E-02  55404.149      -1154.2531            CHD       
 ------------------------------------------------------------------------------------------------




 CNC PACKAGE (CNC) FLOW RATES   PERIOD      1   STEP      200
 -----------------------------------------------
   NUMBER   CELLID                    RATE      
 -----------------------------------------------
     1      (4,1,1)               1147.5330     
     2      (5,1,1)               1153.8550     
     3      (6,1,1)               1153.8936     
     4      (7,1,1)               1153.9107     
     5      (8,1,1)               1153.9244     
     6      (9,1,1)               1153.9334     
     7      (10,1,1)              1153.9378     
 -----------------------------------------------



1
  CONCENTRATION IN LAYER   1 AT END OF TIME STEP 200 IN STRESS PERIOD    1
  ---------------------------------------------------------------------------

                1               2               3               4               5               6               7               8               9              10
               11              12              13              14              15              16              17              18              19              20
               21              22              23              24              25
 ................................................................................................................................................................
   1  55446.95996     55423.99417     55410.35104     55406.82007     55408.08930     55407.33036     55406.69619     55406.42190     55406.31715     55406.28006    
      55406.28646     55406.30334     55406.33279     55406.36758     55406.39841     55406.39663     55406.38415     55406.34038     55406.24834     55406.10157    
      55405.87311     55405.56039     55405.15743     55404.67051     55404.14868    
1
  CONCENTRATION IN LAYER   2 AT END OF TIME STEP 200 IN STRESS PERIOD    1
  ---------------------------------------------------------------------------

                1               2               3               4               5               6               7               8               9              10
               11              12              13              14              15              16              17              18              19              20
               21              22              23              24              25
 ................................................................................................................................................................
   1  55438.10776     55419.92253     55409.11366     55406.53141     55407.79024     55407.15593     55406.61589     55406.38487     55406.29887     55406.27161    
      55406.28089     55406.30082     55406.33169     55406.36707     55406.39817     55406.39647     55406.38403     55406.34032     55406.24830     55406.10155    
      55405.87310     55405.56038     55405.15743     55404.67051     55404.14868    
1
  CONCENTRATION IN LAYER   3 AT END OF TIME STEP 200 IN STRESS PERIOD    1
  ---------------------------------------------------------------------------

                1               2               3               4               5               6               7               8               9              10
               11              12              13              14              15              16              17              18              19              20
               21              22              23              24              25
 ................................................................................................................................................................
   1  55419.99700     55412.67757     55406.93185     55406.12336     55407.26573     55406.83641     55406.46680     55406.31484     55406.26435     55406.25513    
      55406.27064     55406.29609     55406.32958     55406.36609     55406.39771     55406.39617     55406.38381     55406.34020     55406.24824     55406.10153    
      55405.87309     55405.56037     55405.15743     55404.67051     55404.14868    
1
  CONCENTRATION IN LAYER   4 AT END OF TIME STEP 200 IN STRESS PERIOD    1
  ---------------------------------------------------------------------------

                1               2               3               4               5               6               7               8               9              10
               11              12              13              14              15              16              17              18              19              20
               21              22              23              24              25
 ................................................................................................................................................................
   1  55390.78359     55404.41283     55404.35080     55407.39587     55406.60914     55406.42327     55406.27115     55406.21941     55406.21728     55406.23118    
      55406.25750     55406.28972     55406.32666     55406.36473     55406.39708     55406.39577     55406.38350     55406.34004     55406.24817     55406.10150    
      55405.87307     55405.56036     55405.15742     55404.67051     55404.14868    
1
  CONCENTRATION IN LAYER   5 AT END OF TIME STEP 200 IN STRESS PERIOD    1
  ---------------------------------------------------------------------------

                1               2               3               4               5               6               7               8               9              10
               11              12              13              14              15              16              17              18              19              20
               21              22              23              24              25
 ................................................................................................................................................................
   1  55390.78359     55399.03607     55402.02775     55405.98936     55405.88038     55405.98218     55406.04790     55406.10866     55406.16097     55406.20310    
      55406.24274     55406.28234     55406.32320     55406.36312     55406.39634     55406.39530     55406.38315     55406.33986     55406.24808     55406.10147    
      55405.87306     55405.56035     55405.15742     55404.67051     55404.14868    
1
  CONCENTRATION IN LAYER   6 AT END OF TIME STEP 200 IN STRESS PERIOD    1
  ---------------------------------------------------------------------------

                1               2               3               4               5               6               7               8               9              10
               11              12              13              14              15              16              17              18              19              20
               21              22              23              24              25
 ................................................................................................................................................................
   1  55390.78359     55396.05199     55400.26597     55404.55264     55405.13744     55405.55317     55405.82170     55405.99337     55406.10229     55406.17349    
      55406.22738     55406.27466     55406.31958     55406.36143     55406.39556     55406.39482     55406.38278     55406.33968     55406.24799     55406.10144    
      55405.87304     55405.56035     55405.15741     55404.67050     55404.14868    
1
  CONCENTRATION IN LAYER   7 AT END OF TIME STEP 200 IN STRESS PERIOD    1
  ---------------------------------------------------------------------------

                1               2               3               4               5               6               7               8               9              10
               11              12              13              14              15              16              17              18              19              20
               21              22              23              24              25
 ................................................................................................................................................................
   1  55390.78359     55396.44328     55401.02819     55403.25104     55404.44431     55405.16535     55405.61296     55405.88494     55406.04673     55406.14531    
      55406.21282     55406.26732     55406.31622     55406.35982     55406.39482     55406.39435     55406.38243     55406.33951     55406.24792     55406.10141    
      55405.87303     55405.56034     55405.15741     55404.67050     55404.14868    
1
  CONCENTRATION IN LAYER   8 AT END OF TIME STEP 200 IN STRESS PERIOD    1
  ---------------------------------------------------------------------------

                1               2               3               4               5               6               7               8               9              10
               11              12              13              14              15              16              17              18              19              20
               21              22              23              24              25
 ................................................................................................................................................................
   1  55390.78359     55394.94502     55399.27429     55402.21055     55403.86691     55404.84565     55405.43926     55405.79354     55405.99962     55406.12134    
      55406.20050     55406.26098     55406.31345     55406.35847     55406.39418     55406.39396     55406.38214     55406.33937     55406.24785     55406.10140    
      55405.87302     55405.56034     55405.15741     55404.67050     55404.14868    
1
  CONCENTRATION IN LAYER   9 AT END OF TIME STEP 200 IN STRESS PERIOD    1
  ---------------------------------------------------------------------------

                1               2               3               4               5               6               7               8               9              10
               11              12              13              14              15              16              17              18              19              20
               21              22              23              24              25
 ................................................................................................................................................................
   1  55390.78359     55394.06592     55398.30407     55401.48981     55403.45400     55404.61751     55405.31494     55405.72756     55405.96548     55406.10393    
      55406.19157     55406.25634     55406.31147     55406.35749     55406.39372     55406.39368     55406.38193     55406.33927     55406.24781     55406.10139    
      55405.87302     55405.56034     55405.15741     55404.67050     55404.14868    
1
  CONCENTRATION IN LAYER  10 AT END OF TIME STEP 200 IN STRESS PERIOD    1
  ---------------------------------------------------------------------------

                1               2               3               4               5               6               7               8               9              10
               11              12              13              14              15              16              17              18              19              20
               21              22              23              24              25
 ................................................................................................................................................................
   1  55390.78359     55393.67959     55397.82052     55401.12127     55403.23934     55404.49871     55405.25017     55405.69300     55405.94756     55406.09479    
      55406.18689     55406.25390     55406.31045     55406.35698     55406.39349     55406.39354     55406.38183     55406.33922     55406.24780     55406.10139    
      55405.87302     55405.56035     55405.15741     55404.67050     55404.14868    

 CONCENTRATION WILL BE SAVED ON UNIT 1965 AT END OF TIME STEP  200, STRESS PERIOD    1


  MASS BUDGET FOR ENTIRE MODEL AT END OF TIME STEP  200, STRESS PERIOD   1
  ---------------------------------------------------------------------------------------------------

     CUMULATIVE MASS      M       RATES FOR THIS TIME STEP      M/T          PACKAGE NAME    
     ------------------                 ------------------------                     ----------------

           IN:                                      IN:
           ---                                      ---
     STORAGE-AQUEOUS =        2163.1715       STORAGE-AQUEOUS =           1.2342     MST                              
                 CHD =     6943849.2748                   CHD =        3471.9247     SSM_CHD                          
                 CNC =    16154449.3758                   CNC =        8077.2430     CNC                              

            TOTAL IN =    23100461.8221              TOTAL IN =       11550.4019

          OUT:                                     OUT:
          ----                                     ----
     STORAGE-AQUEOUS =        7068.7937       STORAGE-AQUEOUS =           1.6156     MST                              
                 CHD =    23080838.2699                   CHD =       11542.5311     SSM_CHD                          
                 CNC =       12554.7585                   CNC =           6.2552     CNC                              

           TOTAL OUT =    23100461.8221             TOTAL OUT =       11550.4019

            IN - OUT =       1.3076E-06              IN - OUT =       9.4587E-11

 PERCENT DISCREPANCY =           0.00     PERCENT DISCREPANCY =           0.00




         TIME SUMMARY AT END OF TIME STEP  200 IN STRESS PERIOD    1
                    SECONDS     MINUTES      HOURS       DAYS        YEARS
                    -----------------------------------------------------------
   TIME STEP LENGTH 8.64000E+05  14400.      240.00      10.000     2.73785E-02
 STRESS PERIOD TIME 1.72800E+08 2.88000E+06  48000.      2000.0      5.4757    
         TOTAL TIME 1.72800E+08 2.88000E+06  48000.      2000.0      5.4757    


end timestep

