                                   MODFLOW 6
                U.S. GEOLOGICAL SURVEY MODULAR HYDROLOGIC MODEL
                       GROUNDWATER TRANSPORT MODEL (GWT)
                VERSION 6.5.0.dev0+prt (preliminary) 10/07/2023
                               ***DEVELOP MODE***

   MODFLOW 6 compiled Oct 07 2023 02:19:02 with Intel(R) Fortran Intel(R) 64
   Compiler Classic for applications running on Intel(R) 64, Version 2021.7.0
                             Build 20220726_000000

This software is preliminary or provisional and is subject to 
revision. It is being provided to meet the need for timely best 
science. The software has not received final approval by the U.S. 
Geological Survey (USGS). No warranty, expressed or implied, is made 
by the USGS or the U.S. Government as to the functionality of the 
software and related material nor shall the fact of release 
constitute any such warranty. The software is provided on the 
condition that neither the USGS nor the U.S. Government shall be held 
liable for any damages resulting from the authorized or unauthorized 
use of the software.


As a work of the United States Government, this USGS product is 
in the public domain within the United States. You can copy, 
modify, distribute, and perform the work, even for commercial 
purposes, all without asking permission. Additionally, USGS 
waives copyright and related rights in the work worldwide 
through CC0 1.0 Universal Public Domain Dedication 
(https://creativecommons.org/publicdomain/zero/1.0/).

The following GNU Lesser General Public License (LGPL) libraries
are used in this USGS product:

    SPARSKIT version 2.0
      ilut, luson, and qsplit 
      (https://www-users.cse.umn.edu/~saad/software/SPARSKIT/)

    RCM - Reverse Cuthill McKee Ordering
      (https://people.math.sc.edu/Burkardt/f_src/rcm/rcm.html)

    BLAS - Basic Linear Algebra Subprograms Level 1
      (https://people.math.sc.edu/Burkardt/f_src/blas1_d/blas1_d.html)

    SPARSEKIT - Sparse Matrix Utility Package
      amux, dperm, dvperm, rperm, and cperm
      (https://people.sc.fsu.edu/~jburkardt/f77_src/sparsekit/sparsekit.html)

The following BSD-3 License libraries are used in this USGS product:

    Modern Fortran DAG Library
      Copyright (c) 2018, Jacob Williams
      All rights reserved.
      (https://github.com/jacobwilliams/daglib)

MODFLOW 6 compiler options: /Isrc\libmf6core.a.p /Isrc /I..\src
/Isrc\libmf6_external.a.p /MTd /nologo /warn:general /warn:truncated_source
/stand:f08 /Zi /traceback /O2 /fpe:0 /heap-arrays:0 /traceback /fpp
/Qdiag-disable:7416 /Qdiag-disable:7025 /Qdiag-disable:5268
/Fdsrc\libmf6core.a.p\Utilities_compilerversion.F90.pdb
/module:src\libmf6core.a.p
/Fosrc/libmf6core.a.p/Utilities_compilerversion.F90.obj /c

System command used to initiate simulation:
c:\Users\portega\anaconda3\envs\mf6rtm\python.exe -m ipykernel_launcher --f=c:\Users\portega\AppData\Roaming\jupyter\runtime\kernel-v2-17404iCBvKc1FbHvz.json

MODFLOW was compiled using uniform precision.

Real Variables
  KIND: 8
  TINY (smallest non-zero value):    2.225074-308
  HUGE (largest value):    1.797693+308
  PRECISION: 15
  SIZE IN BITS: 64

Integer Variables
  KIND: 4
  HUGE (largest value): 2147483647
  SIZE IN BITS: 32

Long Integer Variables
  KIND: 8
  HUGE (largest value): 9223372036854775807
  SIZE IN BITS: 64

Logical Variables
  KIND: 4
  SIZE IN BITS: 32
 
 NAMEFILE OPTIONS:
 END NAMEFILE OPTIONS:

 DIS -- STRUCTURED GRID DISCRETIZATION PACKAGE, VERSION 2 : 3/27/2014 - INPUT READ FROM MEMPATH: __INPUT__/O/DIS                                   


 DSP-- DISPERSION PACKAGE, VERSION 1, 1/24/2018 INPUT READ FROM MEMPATH: __INPUT__/O/DSP                                   


 Setting Discretization Options
    Model length unit [0=UND, 1=FEET, 2=METERS, 3=CENTIMETERS] set as 2
 End Setting Discretization Options

 Setting Discretization Dimensions
    NLAY = 10
    NROW = 1
    NCOL = 25
 End Setting Discretization Dimensions

 Setting Discretization Griddata
    DELR set from input file
    DELC set from input file
    TOP set from input file
    BOTM set from input file
    IDOMAIN set from input file
 End Setting Discretization Griddata


 FMI -- FLOW MODEL INTERFACE,' VERSION 2, 8/17/2023
  FLOWS PROVIDED BY A GWF MODEL IN THIS SIMULATION

 ADV-- ADVECTION PACKAGE, VERSION 1, 8/25/2017 INPUT READ FROM UNIT 5716


 # File generated by Flopy version 3.5.0.dev0 on 07/12/2024 at 09:44:05.
 PROCESSING ADVECTION OPTIONS
    ADVECTION WEIGHTING SCHEME HAS BEEN SET TO: TVD
 END OF ADVECTION OPTIONS
 Setting DSP Options
    XT3D formulation [0=INACTIVE, 1=ACTIVE, 3=ACTIVE RHS] set to: 0
 End Setting DSP Options

 Setting DSP Griddata
    ALH set from input file
    ATH1 set from input file
    ATV set from input file
 End Setting DSP Griddata


 CNC   -- CNC PACKAGE, VERSION 8, 2/22/2014 INPUT READ FROM UNIT 5750
 # File generated by Flopy version 3.5.0.dev0 on 07/12/2024 at 09:44:05.

 PROCESSING CNC OPTIONS
    CNC FLOWS WILL BE PRINTED TO LISTING FILE.
    FLOWS WILL BE SAVED TO BUDGET FILE SPECIFIED IN OUTPUT CONTROL
 END OF CNC OPTIONS

 PROCESSING CNC DIMENSIONS
    MAXBOUND =       7
 END OF CNC DIMENSIONS

 IC -- INITIAL CONDITIONS PACKAGE, VERSION 8, 3/28/2015 INPUT READ FROM UNIT 5714
 # File generated by Flopy version 3.5.0.dev0 on 07/12/2024 at 09:44:05.
 PROCESSING GRIDDATA

 OPENED O.ic_strt_layer1.txt
 FILE TYPE:OPEN/CLOSE   UNIT 6544   STATUS:OLD                 
 FORMAT:FORMATTED              ACCESS:SEQUENTIAL          
 ACTION:READ                


 OPENED O.ic_strt_layer2.txt
 FILE TYPE:OPEN/CLOSE   UNIT 6545   STATUS:OLD                 
 FORMAT:FORMATTED              ACCESS:SEQUENTIAL          
 ACTION:READ                


 OPENED O.ic_strt_layer3.txt
 FILE TYPE:OPEN/CLOSE   UNIT 6546   STATUS:OLD                 
 FORMAT:FORMATTED              ACCESS:SEQUENTIAL          
 ACTION:READ                


 OPENED O.ic_strt_layer4.txt
 FILE TYPE:OPEN/CLOSE   UNIT 6547   STATUS:OLD                 
 FORMAT:FORMATTED              ACCESS:SEQUENTIAL          
 ACTION:READ                


 OPENED O.ic_strt_layer5.txt
 FILE TYPE:OPEN/CLOSE   UNIT 6548   STATUS:OLD                 
 FORMAT:FORMATTED              ACCESS:SEQUENTIAL          
 ACTION:READ                


 OPENED O.ic_strt_layer6.txt
 FILE TYPE:OPEN/CLOSE   UNIT 6549   STATUS:OLD                 
 FORMAT:FORMATTED              ACCESS:SEQUENTIAL          
 ACTION:READ                


 OPENED O.ic_strt_layer7.txt
 FILE TYPE:OPEN/CLOSE   UNIT 6550   STATUS:OLD                 
 FORMAT:FORMATTED              ACCESS:SEQUENTIAL          
 ACTION:READ                


 OPENED O.ic_strt_layer8.txt
 FILE TYPE:OPEN/CLOSE   UNIT 6551   STATUS:OLD                 
 FORMAT:FORMATTED              ACCESS:SEQUENTIAL          
 ACTION:READ                


 OPENED O.ic_strt_layer9.txt
 FILE TYPE:OPEN/CLOSE   UNIT 6552   STATUS:OLD                 
 FORMAT:FORMATTED              ACCESS:SEQUENTIAL          
 ACTION:READ                


 OPENED O.ic_strt_layer10.txt
 FILE TYPE:OPEN/CLOSE   UNIT 6553   STATUS:OLD                 
 FORMAT:FORMATTED              ACCESS:SEQUENTIAL          
 ACTION:READ                

 END PROCESSING GRIDDATA

 MST -- MOBILE STORAGE AND TRANSFER PACKAGE, VERSION 1, 7/29/2020 INPUT READ FROM UNIT 5715


 # File generated by Flopy version 3.5.0.dev0 on 07/12/2024 at 09:44:05.
 PROCESSING MOBILE STORAGE AND TRANSFER OPTIONS
 END OF MOBILE STORAGE AND TRANSFER OPTIONS
 PROCESSING GRIDDATA

 OPENED O.mst_porosity.txt
 FILE TYPE:OPEN/CLOSE   UNIT 6554   STATUS:OLD                 
 FORMAT:FORMATTED              ACCESS:SEQUENTIAL          
 ACTION:READ                

 END PROCESSING GRIDDATA

 SSM -- SOURCE-SINK MIXING PACKAGE, VERSION 1, 8/25/2017 INPUT READ FROM UNIT 5748


 # File generated by Flopy version 3.5.0.dev0 on 07/12/2024 at 09:44:05.
 PROCESSING SSM OPTIONS
    SSM FLOW INFORMATION WILL BE PRINTED TO LISTING FILE WHENEVER ICBCFL IS NOT ZERO.
    CELL-BY-CELL FLOW INFORMATION WILL BE SAVED TO BINARY FILE WHENEVER ICBCFL IS NOT ZERO.
 END OF SSM OPTIONS

 OPENED O.ssm_sources.txt
 FILE TYPE:OPEN/CLOSE   UNIT 6555   STATUS:OLD                 
 FORMAT:FORMATTED              ACCESS:SEQUENTIAL          
 ACTION:READ                

 PROCESSING SOURCES
 AUX SOURCE DETECTED.
    USING AUX COLUMN 2 IN PACKAGE CHD
 END PROCESSING SOURCES
 OPTIONAL FILEINPUT BLOCK NOT FOUND.  CONTINUING.
      THE LAST TIME STEP WILL BE PRINTED
      THE LAST TIME STEP WILL BE PRINTED
 # File generated by Flopy version 3.5.0.dev0 on 07/12/2024 at 09:44:05.

 PROCESSING OC OPTIONS

    BUDGET INFORMATION WILL BE WRITTEN TO:
      UNIT NUMBER: 6556
      FILE NAME: O.cbb

 OPENED O.cbb
 FILE TYPE:DATA(BINARY)   UNIT 6556   STATUS:REPLACE             
 FORMAT:UNFORMATTED            ACCESS:STREAM              
 ACTION:READWRITE           

    CONCENTRATION INFORMATION WILL BE WRITTEN TO:
      UNIT NUMBER: 6557
      FILE NAME: O.ucn

 OPENED O.ucn
 FILE TYPE:DATA(BINARY)   UNIT 6557   STATUS:REPLACE             
 FORMAT:UNFORMATTED            ACCESS:STREAM              
 ACTION:READWRITE           

 END OF OC OPTIONS

start timestep kper="1" kstp="1" mode="normal"


 BEGIN READING OUTPUT CONTROL FOR STRESS PERIOD 1
      ALL TIME STEPS WILL BE SAVED
      ALL TIME STEPS WILL BE SAVED
      ALL TIME STEPS WILL BE PRINTED
      ALL TIME STEPS WILL BE PRINTED

 END READING OUTPUT CONTROL FOR STRESS PERIOD 1

 OPENED O.cnc_stress_period_data_1.txt
 FILE TYPE:OPEN/CLOSE   UNIT 6727   STATUS:OLD                 
 FORMAT:FORMATTED              ACCESS:SEQUENTIAL          
 ACTION:READ                

 UBDSV06 SAVING  SOURCE-SINK MIX IN MODEL O                PACKAGE O               CONNECTED TO MODEL O                PACKAGE SSM              ON UNIT   6556 AT TIME STEP      1, STRESS PERIOD      1
 UBDSV06 SAVING              CNC IN MODEL O                PACKAGE O               CONNECTED TO MODEL O                PACKAGE CNC              ON UNIT   6556 AT TIME STEP      1, STRESS PERIOD      1

 SSM PACKAGE (SSM) FLOW RATES   PERIOD      1   STEP        1
 ------------------------------------------------------------------------------------------------
   NUMBER   CELLID                   BOUND Q        SSM CONC          RATE         PACKAGE NAME  
 ------------------------------------------------------------------------------------------------
     1      (1,1,1)               2.08333361E-02  55550.796       1157.3084            CHD       
     2      (2,1,1)               2.08333361E-02  55550.796       1157.3084            CHD       
     3      (3,1,1)               2.08333361E-02  55550.796       1157.3084            CHD       
     4      (4,1,1)               0.0000000       0.0000000       0.0000000            CHD       
     5      (5,1,1)               0.0000000       0.0000000       0.0000000            CHD       
     6      (6,1,1)               0.0000000       0.0000000       0.0000000            CHD       
     7      (7,1,1)               0.0000000       0.0000000       0.0000000            CHD       
     8      (8,1,1)               0.0000000       0.0000000       0.0000000            CHD       
     9      (9,1,1)               0.0000000       0.0000000       0.0000000            CHD       
     10     (10,1,1)              0.0000000       0.0000000       0.0000000            CHD       
     11     (1,1,25)             -2.08333402E-02  55390.772      -1153.9748            CHD       
     12     (2,1,25)             -2.08333402E-02  55390.772      -1153.9748            CHD       
     13     (3,1,25)             -2.08333402E-02  55390.772      -1153.9748            CHD       
     14     (4,1,25)             -2.08333403E-02  55390.772      -1153.9748            CHD       
     15     (5,1,25)             -2.08333403E-02  55390.772      -1153.9748            CHD       
     16     (6,1,25)             -2.08333403E-02  55390.772      -1153.9748            CHD       
     17     (7,1,25)             -2.08333403E-02  55390.772      -1153.9748            CHD       
     18     (8,1,25)             -2.08333403E-02  55390.772      -1153.9748            CHD       
     19     (9,1,25)             -2.08333403E-02  55390.772      -1153.9748            CHD       
     20     (10,1,25)            -2.08333403E-02  55390.772      -1153.9748            CHD       
 ------------------------------------------------------------------------------------------------




 CNC PACKAGE (CNC) FLOW RATES   PERIOD      1   STEP        1
 -----------------------------------------------
   NUMBER   CELLID                    RATE      
 -----------------------------------------------
     1      (4,1,1)               1151.6175     
     2      (5,1,1)               1153.9710     
     3      (6,1,1)               1153.9733     
     4      (7,1,1)               1153.9743     
     5      (8,1,1)               1153.9747     
     6      (9,1,1)               1153.9748     
     7      (10,1,1)              1153.9749     
 -----------------------------------------------



1
  CONCENTRATION IN LAYER   1 AT END OF TIME STEP   1 IN STRESS PERIOD    1
  ---------------------------------------------------------------------------

                1               2               3               4               5               6               7               8               9              10
               11              12              13              14              15              16              17              18              19              20
               21              22              23              24              25
 ................................................................................................................................................................
   1  55408.23486     55393.79527     55391.05610     55390.79717     55390.77436     55390.77219     55390.77175     55390.77164     55390.77177     55390.77198    
      55390.77199     55390.77183     55390.77163     55390.77155     55390.77158     55390.77161     55390.77160     55390.77156     55390.77153     55390.77154    
      55390.77158     55390.77163     55390.77167     55390.77173     55390.77175    
1
  CONCENTRATION IN LAYER   2 AT END OF TIME STEP   1 IN STRESS PERIOD    1
  ---------------------------------------------------------------------------

                1               2               3               4               5               6               7               8               9              10
               11              12              13              14              15              16              17              18              19              20
               21              22              23              24              25
 ................................................................................................................................................................
   1  55406.61646     55393.42160     55391.02484     55390.79516     55390.77445     55390.77234     55390.77173     55390.77155     55390.77179     55390.77214    
      55390.77214     55390.77186     55390.77153     55390.77141     55390.77146     55390.77152     55390.77149     55390.77142     55390.77139     55390.77141    
      55390.77148     55390.77156     55390.77163     55390.77172     55390.77175    
1
  CONCENTRATION IN LAYER   3 AT END OF TIME STEP   1 IN STRESS PERIOD    1
  ---------------------------------------------------------------------------

                1               2               3               4               5               6               7               8               9              10
               11              12              13              14              15              16              17              18              19              20
               21              22              23              24              25
 ................................................................................................................................................................
   1  55402.05246     55392.63144     55390.97039     55390.79175     55390.77457     55390.77255     55390.77167     55390.77140     55390.77183     55390.77240    
      55390.77239     55390.77191     55390.77136     55390.77118     55390.77128     55390.77138     55390.77133     55390.77122     55390.77116     55390.77121    
      55390.77131     55390.77145     55390.77156     55390.77171     55390.77175    
1
  CONCENTRATION IN LAYER   4 AT END OF TIME STEP   1 IN STRESS PERIOD    1
  ---------------------------------------------------------------------------

                1               2               3               4               5               6               7               8               9              10
               11              12              13              14              15              16              17              18              19              20
               21              22              23              24              25
 ................................................................................................................................................................
   1  55390.78359     55391.52268     55390.91569     55390.78788     55390.77455     55390.77269     55390.77159     55390.77125     55390.77186     55390.77265    
      55390.77262     55390.77195     55390.77121     55390.77100     55390.77115     55390.77128     55390.77122     55390.77106     55390.77098     55390.77103    
      55390.77118     55390.77135     55390.77150     55390.77169     55390.77175    
1
  CONCENTRATION IN LAYER   5 AT END OF TIME STEP   1 IN STRESS PERIOD    1
  ---------------------------------------------------------------------------

                1               2               3               4               5               6               7               8               9              10
               11              12              13              14              15              16              17              18              19              20
               21              22              23              24              25
 ................................................................................................................................................................
   1  55390.78359     55391.07657     55390.85639     55390.78357     55390.77435     55390.77273     55390.77152     55390.77115     55390.77187     55390.77280    
      55390.77277     55390.77199     55390.77114     55390.77090     55390.77109     55390.77125     55390.77117     55390.77098     55390.77088     55390.77094    
      55390.77110     55390.77130     55390.77146     55390.77167     55390.77174    
1
  CONCENTRATION IN LAYER   6 AT END OF TIME STEP   1 IN STRESS PERIOD    1
  ---------------------------------------------------------------------------

                1               2               3               4               5               6               7               8               9              10
               11              12              13              14              15              16              17              18              19              20
               21              22              23              24              25
 ................................................................................................................................................................
   1  55390.78359     55390.89663     55390.81709     55390.77981     55390.77405     55390.77269     55390.77148     55390.77112     55390.77188     55390.77285    
      55390.77282     55390.77200     55390.77112     55390.77089     55390.77108     55390.77126     55390.77117     55390.77097     55390.77085     55390.77091    
      55390.77108     55390.77128     55390.77144     55390.77166     55390.77174    
1
  CONCENTRATION IN LAYER   7 AT END OF TIME STEP   1 IN STRESS PERIOD    1
  ---------------------------------------------------------------------------

                1               2               3               4               5               6               7               8               9              10
               11              12              13              14              15              16              17              18              19              20
               21              22              23              24              25
 ................................................................................................................................................................
   1  55390.78359     55390.82391     55390.79493     55390.77703     55390.77371     55390.77261     55390.77147     55390.77114     55390.77188     55390.77282    
      55390.77278     55390.77200     55390.77115     55390.77092     55390.77111     55390.77128     55390.77120     55390.77100     55390.77089     55390.77094    
      55390.77110     55390.77129     55390.77144     55390.77166     55390.77174    
1
  CONCENTRATION IN LAYER   8 AT END OF TIME STEP   1 IN STRESS PERIOD    1
  ---------------------------------------------------------------------------

                1               2               3               4               5               6               7               8               9              10
               11              12              13              14              15              16              17              18              19              20
               21              22              23              24              25
 ................................................................................................................................................................
   1  55390.78359     55390.79455     55390.78346     55390.77518     55390.77338     55390.77250     55390.77149     55390.77121     55390.77187     55390.77272    
      55390.77269     55390.77198     55390.77122     55390.77100     55390.77117     55390.77133     55390.77125     55390.77107     55390.77097     55390.77102    
      55390.77115     55390.77133     55390.77147     55390.77166     55390.77174    
1
  CONCENTRATION IN LAYER   9 AT END OF TIME STEP   1 IN STRESS PERIOD    1
  ---------------------------------------------------------------------------

                1               2               3               4               5               6               7               8               9              10
               11              12              13              14              15              16              17              18              19              20
               21              22              23              24              25
 ................................................................................................................................................................
   1  55390.78359     55390.78292     55390.77793     55390.77402     55390.77303     55390.77236     55390.77155     55390.77132     55390.77185     55390.77253    
      55390.77251     55390.77195     55390.77132     55390.77114     55390.77127     55390.77140     55390.77134     55390.77120     55390.77111     55390.77115    
      55390.77126     55390.77140     55390.77152     55390.77168     55390.77174    
1
  CONCENTRATION IN LAYER  10 AT END OF TIME STEP   1 IN STRESS PERIOD    1
  ---------------------------------------------------------------------------

                1               2               3               4               5               6               7               8               9              10
               11              12              13              14              15              16              17              18              19              20
               21              22              23              24              25
 ................................................................................................................................................................
   1  55390.78359     55390.77888     55390.77565     55390.77329     55390.77257     55390.77213     55390.77165     55390.77150     55390.77179     55390.77220    
      55390.77219     55390.77189     55390.77151     55390.77139     55390.77146     55390.77153     55390.77151     55390.77143     55390.77137     55390.77139    
      55390.77145     55390.77154     55390.77161     55390.77170     55390.77175    

 CONCENTRATION WILL BE SAVED ON UNIT 6557 AT END OF TIME STEP    1, STRESS PERIOD    1


  MASS BUDGET FOR ENTIRE MODEL AT END OF TIME STEP    1, STRESS PERIOD   1
  ---------------------------------------------------------------------------------------------------

     CUMULATIVE MASS      M       RATES FOR THIS TIME STEP      M/T          PACKAGE NAME    
     ------------------                 ------------------------                     ----------------

           IN:                                      IN:
           ---                                      ---
     STORAGE-AQUEOUS =       8.1928E-02       STORAGE-AQUEOUS =       8.1928E-03     MST                              
                 CHD =       34719.2519                   CHD =        3471.9252     SSM_CHD                          
                 CNC =       80778.0822                   CNC =        8077.8082     CNC                              

            TOTAL IN =      115497.4160              TOTAL IN =       11549.7416

          OUT:                                     OUT:
          ----                                     ----
     STORAGE-AQUEOUS =          76.4596       STORAGE-AQUEOUS =           7.6460     MST                              
                 CHD =      115397.4795                   CHD =       11539.7480     SSM_CHD                          
                 CNC =          23.4768                   CNC =           2.3477     CNC                              

           TOTAL OUT =      115497.4160             TOTAL OUT =       11549.7416

            IN - OUT =       2.5757E-09              IN - OUT =       2.5830E-10

 PERCENT DISCREPANCY =           0.00     PERCENT DISCREPANCY =           0.00




         TIME SUMMARY AT END OF TIME STEP    1 IN STRESS PERIOD    1
                    SECONDS     MINUTES      HOURS       DAYS        YEARS
                    -----------------------------------------------------------
   TIME STEP LENGTH 8.64000E+05  14400.      240.00      10.000     2.73785E-02
 STRESS PERIOD TIME 8.64000E+05  14400.      240.00      10.000     2.73785E-02
         TOTAL TIME 8.64000E+05  14400.      240.00      10.000     2.73785E-02


end timestep


start timestep kper="1" kstp="2" mode="normal"

 UBDSV06 SAVING  SOURCE-SINK MIX IN MODEL O                PACKAGE O               CONNECTED TO MODEL O                PACKAGE SSM              ON UNIT   6556 AT TIME STEP      2, STRESS PERIOD      1
 UBDSV06 SAVING              CNC IN MODEL O                PACKAGE O               CONNECTED TO MODEL O                PACKAGE CNC              ON UNIT   6556 AT TIME STEP      2, STRESS PERIOD      1

 SSM PACKAGE (SSM) FLOW RATES   PERIOD      1   STEP        2
 ------------------------------------------------------------------------------------------------
   NUMBER   CELLID                   BOUND Q        SSM CONC          RATE         PACKAGE NAME  
 ------------------------------------------------------------------------------------------------
     1      (1,1,1)               2.08333319E-02  55550.796       1157.3082            CHD       
     2      (2,1,1)               2.08333319E-02  55550.796       1157.3082            CHD       
     3      (3,1,1)               2.08333319E-02  55550.796       1157.3082            CHD       
     4      (4,1,1)               0.0000000       0.0000000       0.0000000            CHD       
     5      (5,1,1)               0.0000000       0.0000000       0.0000000            CHD       
     6      (6,1,1)               0.0000000       0.0000000       0.0000000            CHD       
     7      (7,1,1)               0.0000000       0.0000000       0.0000000            CHD       
     8      (8,1,1)               0.0000000       0.0000000       0.0000000            CHD       
     9      (9,1,1)               0.0000000       0.0000000       0.0000000            CHD       
     10     (10,1,1)              0.0000000       0.0000000       0.0000000            CHD       
     11     (1,1,25)             -2.08333370E-02  55390.772      -1153.9746            CHD       
     12     (2,1,25)             -2.08333370E-02  55390.772      -1153.9746            CHD       
     13     (3,1,25)             -2.08333370E-02  55390.772      -1153.9746            CHD       
     14     (4,1,25)             -2.08333370E-02  55390.772      -1153.9746            CHD       
     15     (5,1,25)             -2.08333370E-02  55390.772      -1153.9746            CHD       
     16     (6,1,25)             -2.08333370E-02  55390.772      -1153.9746            CHD       
     17     (7,1,25)             -2.08333370E-02  55390.772      -1153.9746            CHD       
     18     (8,1,25)             -2.08333370E-02  55390.772      -1153.9746            CHD       
     19     (9,1,25)             -2.08333370E-02  55390.772      -1153.9746            CHD       
     20     (10,1,25)            -2.08333370E-02  55390.772      -1153.9746            CHD       
 ------------------------------------------------------------------------------------------------




 CNC PACKAGE (CNC) FLOW RATES   PERIOD      1   STEP        2
 -----------------------------------------------
   NUMBER   CELLID                    RATE      
 -----------------------------------------------
     1      (4,1,1)               1150.1413     
     2      (5,1,1)               1153.9620     
     3      (6,1,1)               1153.9690     
     4      (7,1,1)               1153.9721     
     5      (8,1,1)               1153.9736     
     6      (9,1,1)               1153.9742     
     7      (10,1,1)              1153.9744     
 -----------------------------------------------



1
  CONCENTRATION IN LAYER   1 AT END OF TIME STEP   2 IN STRESS PERIOD    1
  ---------------------------------------------------------------------------

                1               2               3               4               5               6               7               8               9              10
               11              12              13              14              15              16              17              18              19              20
               21              22              23              24              25
 ................................................................................................................................................................
   1  55421.58780     55398.35940     55391.78466     55390.88944     55390.78528     55390.77353     55390.77206     55390.77191     55390.77192     55390.77196    
      55390.77189     55390.77177     55390.77161     55390.77150     55390.77145     55390.77141     55390.77137     55390.77134     55390.77133     55390.77136    
      55390.77142     55390.77150     55390.77158     55390.77169     55390.77174    
1
  CONCENTRATION IN LAYER   2 AT END OF TIME STEP   2 IN STRESS PERIOD    1
  ---------------------------------------------------------------------------

                1               2               3               4               5               6               7               8               9              10
               11              12              13              14              15              16              17              18              19              20
               21              22              23              24              25
 ................................................................................................................................................................
   1  55417.99152     55397.36079     55391.67765     55390.88036     55390.78452     55390.77349     55390.77217     55390.77207     55390.77203     55390.77196    
      55390.77183     55390.77171     55390.77157     55390.77145     55390.77135     55390.77127     55390.77122     55390.77119     55390.77120     55390.77124    
      55390.77132     55390.77142     55390.77153     55390.77168     55390.77174    
1
  CONCENTRATION IN LAYER   3 AT END OF TIME STEP   2 IN STRESS PERIOD    1
  ---------------------------------------------------------------------------

                1               2               3               4               5               6               7               8               9              10
               11              12              13              14              15              16              17              18              19              20
               21              22              23              24              25
 ................................................................................................................................................................
   1  55409.05063     55395.40058     55391.49544     55390.86490     55390.78313     55390.77340     55390.77235     55390.77234     55390.77219     55390.77196    
      55390.77173     55390.77162     55390.77152     55390.77138     55390.77122     55390.77107     55390.77098     55390.77096     55390.77099     55390.77106    
      55390.77116     55390.77130     55390.77145     55390.77165     55390.77174    
1
  CONCENTRATION IN LAYER   4 AT END OF TIME STEP   2 IN STRESS PERIOD    1
  ---------------------------------------------------------------------------

                1               2               3               4               5               6               7               8               9              10
               11              12              13              14              15              16              17              18              19              20
               21              22              23              24              25
 ................................................................................................................................................................
   1  55390.78359     55392.90781     55391.30774     55390.84717     55390.78141     55390.77329     55390.77252     55390.77256     55390.77233     55390.77196    
      55390.77165     55390.77156     55390.77148     55390.77133     55390.77110     55390.77089     55390.77077     55390.77076     55390.77081     55390.77090    
      55390.77102     55390.77118     55390.77136     55390.77163     55390.77173    
1
  CONCENTRATION IN LAYER   5 AT END OF TIME STEP   2 IN STRESS PERIOD    1
  ---------------------------------------------------------------------------

                1               2               3               4               5               6               7               8               9              10
               11              12              13              14              15              16              17              18              19              20
               21              22              23              24              25
 ................................................................................................................................................................
   1  55390.78359     55391.74571     55391.10723     55390.82772     55390.77955     55390.77314     55390.77261     55390.77268     55390.77241     55390.77198    
      55390.77162     55390.77155     55390.77147     55390.77130     55390.77103     55390.77079     55390.77066     55390.77065     55390.77070     55390.77080    
      55390.77093     55390.77111     55390.77131     55390.77160     55390.77173    
1
  CONCENTRATION IN LAYER   6 AT END OF TIME STEP   2 IN STRESS PERIOD    1
  ---------------------------------------------------------------------------

                1               2               3               4               5               6               7               8               9              10
               11              12              13              14              15              16              17              18              19              20
               21              22              23              24              25
 ................................................................................................................................................................
   1  55390.78359     55391.21236     55390.96407     55390.81034     55390.77777     55390.77298     55390.77263     55390.77271     55390.77243     55390.77199    
      55390.77163     55390.77155     55390.77147     55390.77130     55390.77102     55390.77077     55390.77063     55390.77062     55390.77067     55390.77077    
      55390.77090     55390.77108     55390.77128     55390.77159     55390.77173    
1
  CONCENTRATION IN LAYER   7 AT END OF TIME STEP   2 IN STRESS PERIOD    1
  ---------------------------------------------------------------------------

                1               2               3               4               5               6               7               8               9              10
               11              12              13              14              15              16              17              18              19              20
               21              22              23              24              25
 ................................................................................................................................................................
   1  55390.78359     55390.97041     55390.87668     55390.79702     55390.77624     55390.77281     55390.77260     55390.77267     55390.77241     55390.77199    
      55390.77165     55390.77157     55390.77149     55390.77132     55390.77105     55390.77081     55390.77067     55390.77065     55390.77070     55390.77080    
      55390.77092     55390.77109     55390.77129     55390.77158     55390.77173    
1
  CONCENTRATION IN LAYER   8 AT END OF TIME STEP   2 IN STRESS PERIOD    1
  ---------------------------------------------------------------------------

                1               2               3               4               5               6               7               8               9              10
               11              12              13              14              15              16              17              18              19              20
               21              22              23              24              25
 ................................................................................................................................................................
   1  55390.78359     55390.86228     55390.82783     55390.78789     55390.77506     55390.77265     55390.77253     55390.77258     55390.77234     55390.77198    
      55390.77167     55390.77160     55390.77151     55390.77135     55390.77111     55390.77089     55390.77077     55390.77075     55390.77079     55390.77087    
      55390.77099     55390.77114     55390.77132     55390.77159     55390.77173    
1
  CONCENTRATION IN LAYER   9 AT END OF TIME STEP   2 IN STRESS PERIOD    1
  ---------------------------------------------------------------------------

                1               2               3               4               5               6               7               8               9              10
               11              12              13              14              15              16              17              18              19              20
               21              22              23              24              25
 ................................................................................................................................................................
   1  55390.78359     55390.81559     55390.80279     55390.78236     55390.77428     55390.77252     55390.77239     55390.77241     55390.77223     55390.77197    
      55390.77173     55390.77164     55390.77154     55390.77139     55390.77120     55390.77103     55390.77092     55390.77090     55390.77093     55390.77100    
      55390.77109     55390.77123     55390.77138     55390.77161     55390.77173    
1
  CONCENTRATION IN LAYER  10 AT END OF TIME STEP   2 IN STRESS PERIOD    1
  ---------------------------------------------------------------------------

                1               2               3               4               5               6               7               8               9              10
               11              12              13              14              15              16              17              18              19              20
               21              22              23              24              25
 ................................................................................................................................................................
   1  55390.78359     55390.79830     55390.79236     55390.77979     55390.77397     55390.77244     55390.77211     55390.77206     55390.77205     55390.77205    
      55390.77192     55390.77175     55390.77155     55390.77140     55390.77131     55390.77123     55390.77116     55390.77111     55390.77111     55390.77115    
      55390.77123     55390.77135     55390.77147     55390.77163     55390.77173    

 CONCENTRATION WILL BE SAVED ON UNIT 6557 AT END OF TIME STEP    2, STRESS PERIOD    1


  MASS BUDGET FOR ENTIRE MODEL AT END OF TIME STEP    2, STRESS PERIOD   1
  ---------------------------------------------------------------------------------------------------

     CUMULATIVE MASS      M       RATES FOR THIS TIME STEP      M/T          PACKAGE NAME    
     ------------------                 ------------------------                     ----------------

           IN:                                      IN:
           ---                                      ---
     STORAGE-AQUEOUS =           0.1332       STORAGE-AQUEOUS =       5.1231E-03     MST                              
                 CHD =       69438.4968                   CHD =        3471.9245     SSM_CHD                          
                 CNC =      161555.8041                   CNC =        8077.7722     CNC                              

            TOTAL IN =      230994.4340              TOTAL IN =       11549.7018

          OUT:                                     OUT:
          ----                                     ----
     STORAGE-AQUEOUS =         137.9598       STORAGE-AQUEOUS =           6.1500     MST                              
                 CHD =      230794.9410                   CHD =       11539.7461     SSM_CHD                          
                 CNC =          61.5332                   CNC =           3.8056     CNC                              

           TOTAL OUT =      230994.4340             TOTAL OUT =       11549.7018

            IN - OUT =       4.9185E-09              IN - OUT =       2.3465E-10

 PERCENT DISCREPANCY =           0.00     PERCENT DISCREPANCY =           0.00




         TIME SUMMARY AT END OF TIME STEP    2 IN STRESS PERIOD    1
                    SECONDS     MINUTES      HOURS       DAYS        YEARS
                    -----------------------------------------------------------
   TIME STEP LENGTH 8.64000E+05  14400.      240.00      10.000     2.73785E-02
 STRESS PERIOD TIME 1.72800E+06  28800.      480.00      20.000     5.47570E-02
         TOTAL TIME 1.72800E+06  28800.      480.00      20.000     5.47570E-02


end timestep


start timestep kper="1" kstp="3" mode="normal"

 UBDSV06 SAVING  SOURCE-SINK MIX IN MODEL O                PACKAGE O               CONNECTED TO MODEL O                PACKAGE SSM              ON UNIT   6556 AT TIME STEP      3, STRESS PERIOD      1
 UBDSV06 SAVING              CNC IN MODEL O                PACKAGE O               CONNECTED TO MODEL O                PACKAGE CNC              ON UNIT   6556 AT TIME STEP      3, STRESS PERIOD      1

 SSM PACKAGE (SSM) FLOW RATES   PERIOD      1   STEP        3
 ------------------------------------------------------------------------------------------------
   NUMBER   CELLID                   BOUND Q        SSM CONC          RATE         PACKAGE NAME  
 ------------------------------------------------------------------------------------------------
     1      (1,1,1)               2.08333325E-02  55550.796       1157.3082            CHD       
     2      (2,1,1)               2.08333325E-02  55550.796       1157.3082            CHD       
     3      (3,1,1)               2.08333325E-02  55550.796       1157.3082            CHD       
     4      (4,1,1)               0.0000000       0.0000000       0.0000000            CHD       
     5      (5,1,1)               0.0000000       0.0000000       0.0000000            CHD       
     6      (6,1,1)               0.0000000       0.0000000       0.0000000            CHD       
     7      (7,1,1)               0.0000000       0.0000000       0.0000000            CHD       
     8      (8,1,1)               0.0000000       0.0000000       0.0000000            CHD       
     9      (9,1,1)               0.0000000       0.0000000       0.0000000            CHD       
     10     (10,1,1)              0.0000000       0.0000000       0.0000000            CHD       
     11     (1,1,25)             -2.08333362E-02  55390.772      -1153.9746            CHD       
     12     (2,1,25)             -2.08333362E-02  55390.772      -1153.9746            CHD       
     13     (3,1,25)             -2.08333362E-02  55390.772      -1153.9746            CHD       
     14     (4,1,25)             -2.08333362E-02  55390.772      -1153.9746            CHD       
     15     (5,1,25)             -2.08333362E-02  55390.772      -1153.9746            CHD       
     16     (6,1,25)             -2.08333362E-02  55390.772      -1153.9746            CHD       
     17     (7,1,25)             -2.08333362E-02  55390.772      -1153.9746            CHD       
     18     (8,1,25)             -2.08333362E-02  55390.772      -1153.9746            CHD       
     19     (9,1,25)             -2.08333362E-02  55390.772      -1153.9746            CHD       
     20     (10,1,25)            -2.08333362E-02  55390.772      -1153.9746            CHD       
 ------------------------------------------------------------------------------------------------




 CNC PACKAGE (CNC) FLOW RATES   PERIOD      1   STEP        3
 -----------------------------------------------
   NUMBER   CELLID                    RATE      
 -----------------------------------------------
     1      (4,1,1)               1149.2034     
     2      (5,1,1)               1153.9503     
     3      (6,1,1)               1153.9628     
     4      (7,1,1)               1153.9690     
     5      (8,1,1)               1153.9720     
     6      (9,1,1)               1153.9733     
     7      (10,1,1)              1153.9739     
 -----------------------------------------------



1
  CONCENTRATION IN LAYER   1 AT END OF TIME STEP   3 IN STRESS PERIOD    1
  ---------------------------------------------------------------------------

                1               2               3               4               5               6               7               8               9              10
               11              12              13              14              15              16              17              18              19              20
               21              22              23              24              25
 ................................................................................................................................................................
   1  55430.77057     55403.09056     55392.87813     55391.07229     55390.81215     55390.77727     55390.77267     55390.77207     55390.77198     55390.77196    
      55390.77188     55390.77174     55390.77156     55390.77141     55390.77130     55390.77124     55390.77118     55390.77115     55390.77115     55390.77119    
      55390.77126     55390.77137     55390.77149     55390.77164     55390.77173    
1
  CONCENTRATION IN LAYER   2 AT END OF TIME STEP   3 IN STRESS PERIOD    1
  ---------------------------------------------------------------------------

                1               2               3               4               5               6               7               8               9              10
               11              12              13              14              15              16              17              18              19              20
               21              22              23              24              25
 ................................................................................................................................................................
   1  55425.56964     55401.44668     55392.66751     55391.05114     55390.81004     55390.77711     55390.77272     55390.77214     55390.77201     55390.77196    
      55390.77186     55390.77171     55390.77151     55390.77133     55390.77120     55390.77111     55390.77105     55390.77102     55390.77103     55390.77108    
      55390.77117     55390.77130     55390.77144     55390.77163     55390.77172    
1
  CONCENTRATION IN LAYER   3 AT END OF TIME STEP   3 IN STRESS PERIOD    1
  ---------------------------------------------------------------------------

                1               2               3               4               5               6               7               8               9              10
               11              12              13              14              15              16              17              18              19              20
               21              22              23              24              25
 ................................................................................................................................................................
   1  55413.44862     55398.34281     55392.31123     55391.01490     55390.80625     55390.77678     55390.77281     55390.77224     55390.77206     55390.77197    
      55390.77183     55390.77167     55390.77144     55390.77121     55390.77103     55390.77092     55390.77085     55390.77083     55390.77084     55390.77090    
      55390.77102     55390.77119     55390.77137     55390.77160     55390.77172    
1
  CONCENTRATION IN LAYER   4 AT END OF TIME STEP   3 IN STRESS PERIOD    1
  ---------------------------------------------------------------------------

                1               2               3               4               5               6               7               8               9              10
               11              12              13              14              15              16              17              18              19              20
               21              22              23              24              25
 ................................................................................................................................................................
   1  55390.78359     55394.57286     55391.93326     55390.97225     55390.80137     55390.77632     55390.77287     55390.77234     55390.77211     55390.77198    
      55390.77182     55390.77164     55390.77137     55390.77110     55390.77089     55390.77075     55390.77067     55390.77064     55390.77066     55390.77074    
      55390.77088     55390.77108     55390.77129     55390.77157     55390.77171    
1
  CONCENTRATION IN LAYER   5 AT END OF TIME STEP   3 IN STRESS PERIOD    1
  ---------------------------------------------------------------------------

                1               2               3               4               5               6               7               8               9              10
               11              12              13              14              15              16              17              18              19              20
               21              22              23              24              25
 ................................................................................................................................................................
   1  55390.78359     55392.64991     55391.53322     55390.92492     55390.79598     55390.77575     55390.77289     55390.77240     55390.77216     55390.77200    
      55390.77182     55390.77163     55390.77134     55390.77105     55390.77081     55390.77065     55390.77056     55390.77053     55390.77055     55390.77063    
      55390.77079     55390.77100     55390.77123     55390.77155     55390.77171    
1
  CONCENTRATION IN LAYER   6 AT END OF TIME STEP   3 IN STRESS PERIOD    1
  ---------------------------------------------------------------------------

                1               2               3               4               5               6               7               8               9              10
               11              12              13              14              15              16              17              18              19              20
               21              22              23              24              25
 ................................................................................................................................................................
   1  55390.78359     55391.68791     55391.23291     55390.88115     55390.79069     55390.77515     55390.77286     55390.77242     55390.77218     55390.77202    
      55390.77183     55390.77163     55390.77134     55390.77103     55390.77078     55390.77062     55390.77052     55390.77049     55390.77051     55390.77059    
      55390.77075     55390.77097     55390.77121     55390.77153     55390.77170    
1
  CONCENTRATION IN LAYER   7 AT END OF TIME STEP   3 IN STRESS PERIOD    1
  ---------------------------------------------------------------------------

                1               2               3               4               5               6               7               8               9              10
               11              12              13              14              15              16              17              18              19              20
               21              22              23              24              25
 ................................................................................................................................................................
   1  55390.78359     55391.21468     55391.03827     55390.84614     55390.78607     55390.77458     55390.77278     55390.77239     55390.77217     55390.77202    
      55390.77184     55390.77165     55390.77136     55390.77106     55390.77081     55390.77065     55390.77056     55390.77052     55390.77054     55390.77062    
      55390.77076     55390.77098     55390.77121     55390.77153     55390.77170    
1
  CONCENTRATION IN LAYER   8 AT END OF TIME STEP   3 IN STRESS PERIOD    1
  ---------------------------------------------------------------------------

                1               2               3               4               5               6               7               8               9              10
               11              12              13              14              15              16              17              18              19              20
               21              22              23              24              25
 ................................................................................................................................................................
   1  55390.78359     55390.98677     55390.92297     55390.82125     55390.78247     55390.77409     55390.77267     55390.77233     55390.77214     55390.77202    
      55390.77186     55390.77167     55390.77139     55390.77111     55390.77088     55390.77074     55390.77065     55390.77061     55390.77062     55390.77069    
      55390.77083     55390.77102     55390.77124     55390.77153     55390.77170    
1
  CONCENTRATION IN LAYER   9 AT END OF TIME STEP   3 IN STRESS PERIOD    1
  ---------------------------------------------------------------------------

                1               2               3               4               5               6               7               8               9              10
               11              12              13              14              15              16              17              18              19              20
               21              22              23              24              25
 ................................................................................................................................................................
   1  55390.78359     55390.88175     55390.86069     55390.80580     55390.78003     55390.77372     55390.77254     55390.77225     55390.77210     55390.77202    
      55390.77188     55390.77170     55390.77144     55390.77118     55390.77099     55390.77086     55390.77078     55390.77074     55390.77075     55390.77081    
      55390.77092     55390.77110     55390.77129     55390.77155     55390.77170    
1
  CONCENTRATION IN LAYER  10 AT END OF TIME STEP   3 IN STRESS PERIOD    1
  ---------------------------------------------------------------------------

                1               2               3               4               5               6               7               8               9              10
               11              12              13              14              15              16              17              18              19              20
               21              22              23              24              25
 ................................................................................................................................................................
   1  55390.78359     55390.84095     55390.83377     55390.79851     55390.77879     55390.77348     55390.77242     55390.77218     55390.77208     55390.77203    
      55390.77191     55390.77173     55390.77150     55390.77128     55390.77112     55390.77102     55390.77094     55390.77089     55390.77089     55390.77094    
      55390.77104     55390.77119     55390.77135     55390.77157     55390.77171    

 CONCENTRATION WILL BE SAVED ON UNIT 6557 AT END OF TIME STEP    3, STRESS PERIOD    1


  MASS BUDGET FOR ENTIRE MODEL AT END OF TIME STEP    3, STRESS PERIOD   1
  ---------------------------------------------------------------------------------------------------

     CUMULATIVE MASS      M       RATES FOR THIS TIME STEP      M/T          PACKAGE NAME    
     ------------------                 ------------------------                     ----------------

           IN:                                      IN:
           ---                                      ---
     STORAGE-AQUEOUS =           0.1617       STORAGE-AQUEOUS =       2.8539E-03     MST                              
                 CHD =      104157.7427                   CHD =        3471.9246     SSM_CHD                          
                 CNC =      242333.0701                   CNC =        8077.7266     CNC                              

            TOTAL IN =      346490.9745              TOTAL IN =       11549.6540

          OUT:                                     OUT:
          ----                                     ----
     STORAGE-AQUEOUS =         189.8244       STORAGE-AQUEOUS =           5.1865     MST                              
                 CHD =      346192.3981                   CHD =       11539.7457     SSM_CHD                          
                 CNC =         108.7520                   CNC =           4.7219     CNC                              

           TOTAL OUT =      346490.9745             TOTAL OUT =       11549.6540

            IN - OUT =       9.9535E-09              IN - OUT =       4.9840E-10

 PERCENT DISCREPANCY =           0.00     PERCENT DISCREPANCY =           0.00




         TIME SUMMARY AT END OF TIME STEP    3 IN STRESS PERIOD    1
                    SECONDS     MINUTES      HOURS       DAYS        YEARS
                    -----------------------------------------------------------
   TIME STEP LENGTH 8.64000E+05  14400.      240.00      10.000     2.73785E-02
 STRESS PERIOD TIME 2.59200E+06  43200.      720.00      30.000     8.21355E-02
         TOTAL TIME 2.59200E+06  43200.      720.00      30.000     8.21355E-02


end timestep


start timestep kper="1" kstp="4" mode="normal"

 UBDSV06 SAVING  SOURCE-SINK MIX IN MODEL O                PACKAGE O               CONNECTED TO MODEL O                PACKAGE SSM              ON UNIT   6556 AT TIME STEP      4, STRESS PERIOD      1
 UBDSV06 SAVING              CNC IN MODEL O                PACKAGE O               CONNECTED TO MODEL O                PACKAGE CNC              ON UNIT   6556 AT TIME STEP      4, STRESS PERIOD      1

 SSM PACKAGE (SSM) FLOW RATES   PERIOD      1   STEP        4
 ------------------------------------------------------------------------------------------------
   NUMBER   CELLID                   BOUND Q        SSM CONC          RATE         PACKAGE NAME  
 ------------------------------------------------------------------------------------------------
     1      (1,1,1)               2.08333321E-02  55550.796       1157.3082            CHD       
     2      (2,1,1)               2.08333321E-02  55550.796       1157.3082            CHD       
     3      (3,1,1)               2.08333321E-02  55550.796       1157.3082            CHD       
     4      (4,1,1)               0.0000000       0.0000000       0.0000000            CHD       
     5      (5,1,1)               0.0000000       0.0000000       0.0000000            CHD       
     6      (6,1,1)               0.0000000       0.0000000       0.0000000            CHD       
     7      (7,1,1)               0.0000000       0.0000000       0.0000000            CHD       
     8      (8,1,1)               0.0000000       0.0000000       0.0000000            CHD       
     9      (9,1,1)               0.0000000       0.0000000       0.0000000            CHD       
     10     (10,1,1)              0.0000000       0.0000000       0.0000000            CHD       
     11     (1,1,25)             -2.08333356E-02  55390.772      -1153.9745            CHD       
     12     (2,1,25)             -2.08333356E-02  55390.772      -1153.9745            CHD       
     13     (3,1,25)             -2.08333356E-02  55390.772      -1153.9745            CHD       
     14     (4,1,25)             -2.08333356E-02  55390.772      -1153.9745            CHD       
     15     (5,1,25)             -2.08333356E-02  55390.772      -1153.9745            CHD       
     16     (6,1,25)             -2.08333356E-02  55390.772      -1153.9745            CHD       
     17     (7,1,25)             -2.08333356E-02  55390.772      -1153.9745            CHD       
     18     (8,1,25)             -2.08333356E-02  55390.772      -1153.9745            CHD       
     19     (9,1,25)             -2.08333356E-02  55390.772      -1153.9745            CHD       
     20     (10,1,25)            -2.08333356E-02  55390.772      -1153.9745            CHD       
 ------------------------------------------------------------------------------------------------




 CNC PACKAGE (CNC) FLOW RATES   PERIOD      1   STEP        4
 -----------------------------------------------
   NUMBER   CELLID                    RATE      
 -----------------------------------------------
     1      (4,1,1)               1148.6501     
     2      (5,1,1)               1153.9372     
     3      (6,1,1)               1153.9553     
     4      (7,1,1)               1153.9648     
     5      (8,1,1)               1153.9696     
     6      (9,1,1)               1153.9720     
     7      (10,1,1)              1153.9729     
 -----------------------------------------------



1
  CONCENTRATION IN LAYER   1 AT END OF TIME STEP   4 IN STRESS PERIOD    1
  ---------------------------------------------------------------------------

                1               2               3               4               5               6               7               8               9              10
               11              12              13              14              15              16              17              18              19              20
               21              22              23              24              25
 ................................................................................................................................................................
   1  55434.53700     55407.10040     55394.22762     55391.36482     55390.86460     55390.78574     55390.77403     55390.77232     55390.77205     55390.77196    
      55390.77185     55390.77170     55390.77151     55390.77133     55390.77119     55390.77109     55390.77102     55390.77099     55390.77099     55390.77104    
      55390.77113     55390.77126     55390.77141     55390.77159     55390.77170    
1
  CONCENTRATION IN LAYER   2 AT END OF TIME STEP   4 IN STRESS PERIOD    1
  ---------------------------------------------------------------------------

                1               2               3               4               5               6               7               8               9              10
               11              12              13              14              15              16              17              18              19              20
               21              22              23              24              25
 ................................................................................................................................................................
   1  55429.67318     55405.01952     55393.89956     55391.32625     55390.86007     55390.78521     55390.77401     55390.77237     55390.77207     55390.77196    
      55390.77182     55390.77165     55390.77145     55390.77126     55390.77110     55390.77099     55390.77091     55390.77088     55390.77089     55390.77094    
      55390.77105     55390.77120     55390.77137     55390.77157     55390.77170    
1
  CONCENTRATION IN LAYER   3 AT END OF TIME STEP   4 IN STRESS PERIOD    1
  ---------------------------------------------------------------------------

                1               2               3               4               5               6               7               8               9              10
               11              12              13              14              15              16              17              18              19              20
               21              22              23              24              25
 ................................................................................................................................................................
   1  55415.99889     55401.04236     55393.34634     55391.25981     55390.85187     55390.78423     55390.77397     55390.77243     55390.77212     55390.77196    
      55390.77177     55390.77158     55390.77137     55390.77115     55390.77097     55390.77083     55390.77073     55390.77070     55390.77072     55390.77079    
      55390.77092     55390.77110     55390.77130     55390.77155     55390.77169    
1
  CONCENTRATION IN LAYER   4 AT END OF TIME STEP   4 IN STRESS PERIOD    1
  ---------------------------------------------------------------------------

                1               2               3               4               5               6               7               8               9              10
               11              12              13              14              15              16              17              18              19              20
               21              22              23              24              25
 ................................................................................................................................................................
   1  55390.78359     55396.25944     55392.74398     55391.18012     55390.84125     55390.78292     55390.77389     55390.77250     55390.77217     55390.77196    
      55390.77174     55390.77152     55390.77129     55390.77105     55390.77084     55390.77067     55390.77057     55390.77053     55390.77056     55390.77065    
      55390.77080     55390.77100     55390.77123     55390.77152     55390.77169    
1
  CONCENTRATION IN LAYER   5 AT END OF TIME STEP   4 IN STRESS PERIOD    1
  ---------------------------------------------------------------------------

                1               2               3               4               5               6               7               8               9              10
               11              12              13              14              15              16              17              18              19              20
               21              22              23              24              25
 ................................................................................................................................................................
   1  55390.78359     55393.65545     55392.11132     55391.09106     55390.82940     55390.78141     55390.77376     55390.77254     55390.77220     55390.77197    
      55390.77172     55390.77150     55390.77125     55390.77100     55390.77076     55390.77058     55390.77046     55390.77042     55390.77045     55390.77055    
      55390.77071     55390.77093     55390.77117     55390.77149     55390.77168    
1
  CONCENTRATION IN LAYER   6 AT END OF TIME STEP   4 IN STRESS PERIOD    1
  ---------------------------------------------------------------------------

                1               2               3               4               5               6               7               8               9              10
               11              12              13              14              15              16              17              18              19              20
               21              22              23              24              25
 ................................................................................................................................................................
   1  55390.78359     55392.26609     55391.61830     55391.00668     55390.81764     55390.77988     55390.77360     55390.77254     55390.77222     55390.77199    
      55390.77173     55390.77149     55390.77124     55390.77098     55390.77074     55390.77054     55390.77042     55390.77038     55390.77041     55390.77050    
      55390.77067     55390.77089     55390.77114     55390.77147     55390.77168    
1
  CONCENTRATION IN LAYER   7 AT END OF TIME STEP   4 IN STRESS PERIOD    1
  ---------------------------------------------------------------------------

                1               2               3               4               5               6               7               8               9              10
               11              12              13              14              15              16              17              18              19              20
               21              22              23              24              25
 ................................................................................................................................................................
   1  55390.78359     55391.53867     55391.28371     55390.93702     55390.80718     55390.77846     55390.77342     55390.77251     55390.77222     55390.77199    
      55390.77174     55390.77151     55390.77126     55390.77100     55390.77076     55390.77057     55390.77044     55390.77040     55390.77043     55390.77052    
      55390.77068     55390.77090     55390.77114     55390.77147     55390.77167    
1
  CONCENTRATION IN LAYER   8 AT END OF TIME STEP   4 IN STRESS PERIOD    1
  ---------------------------------------------------------------------------

                1               2               3               4               5               6               7               8               9              10
               11              12              13              14              15              16              17              18              19              20
               21              22              23              24              25
 ................................................................................................................................................................
   1  55390.78359     55391.16700     55391.07646     55390.88597     55390.79888     55390.77729     55390.77323     55390.77245     55390.77220     55390.77200    
      55390.77177     55390.77155     55390.77130     55390.77105     55390.77082     55390.77064     55390.77052     55390.77047     55390.77050     55390.77058    
      55390.77073     55390.77094     55390.77117     55390.77148     55390.77167    
1
  CONCENTRATION IN LAYER   9 AT END OF TIME STEP   4 IN STRESS PERIOD    1
  ---------------------------------------------------------------------------

                1               2               3               4               5               6               7               8               9              10
               11              12              13              14              15              16              17              18              19              20
               21              22              23              24              25
 ................................................................................................................................................................
   1  55390.78359     55390.98644     55390.96029     55390.85340     55390.79322     55390.77645     55390.77307     55390.77238     55390.77216     55390.77200    
      55390.77180     55390.77159     55390.77135     55390.77111     55390.77091     55390.77074     55390.77063     55390.77059     55390.77060     55390.77068    
      55390.77081     55390.77100     55390.77121     55390.77149     55390.77168    
1
  CONCENTRATION IN LAYER  10 AT END OF TIME STEP   4 IN STRESS PERIOD    1
  ---------------------------------------------------------------------------

                1               2               3               4               5               6               7               8               9              10
               11              12              13              14              15              16              17              18              19              20
               21              22              23              24              25
 ................................................................................................................................................................
   1  55390.78359     55390.91360     55390.90864     55390.83781     55390.79039     55390.77602     55390.77297     55390.77233     55390.77214     55390.77202    
      55390.77185     55390.77166     55390.77142     55390.77120     55390.77100     55390.77086     55390.77076     55390.77071     55390.77072     55390.77078    
      55390.77090     55390.77106     55390.77126     55390.77150     55390.77168    

 CONCENTRATION WILL BE SAVED ON UNIT 6557 AT END OF TIME STEP    4, STRESS PERIOD    1


  MASS BUDGET FOR ENTIRE MODEL AT END OF TIME STEP    4, STRESS PERIOD   1
  ---------------------------------------------------------------------------------------------------

     CUMULATIVE MASS      M       RATES FOR THIS TIME STEP      M/T          PACKAGE NAME    
     ------------------                 ------------------------                     ----------------

           IN:                                      IN:
           ---                                      ---
     STORAGE-AQUEOUS =           0.1809       STORAGE-AQUEOUS =       1.9212E-03     MST                              
                 CHD =      138876.9879                   CHD =        3471.9245     SSM_CHD                          
                 CNC =      323109.8199                   CNC =        8077.6750     CNC                              

            TOTAL IN =      461986.9888              TOTAL IN =       11549.6014

          OUT:                                     OUT:
          ----                                     ----
     STORAGE-AQUEOUS =         235.8532       STORAGE-AQUEOUS =           4.6029     MST                              
                 CHD =      461589.8518                   CHD =       11539.7454     SSM_CHD                          
                 CNC =         161.2838                   CNC =           5.2532     CNC                              

           TOTAL OUT =      461986.9888             TOTAL OUT =       11549.6014

            IN - OUT =       1.2224E-08              IN - OUT =       2.2919E-10

 PERCENT DISCREPANCY =           0.00     PERCENT DISCREPANCY =           0.00




         TIME SUMMARY AT END OF TIME STEP    4 IN STRESS PERIOD    1
                    SECONDS     MINUTES      HOURS       DAYS        YEARS
                    -----------------------------------------------------------
   TIME STEP LENGTH 8.64000E+05  14400.      240.00      10.000     2.73785E-02
 STRESS PERIOD TIME 3.45600E+06  57600.      960.00      40.000     0.10951    
         TOTAL TIME 3.45600E+06  57600.      960.00      40.000     0.10951    


end timestep


start timestep kper="1" kstp="5" mode="normal"

 UBDSV06 SAVING  SOURCE-SINK MIX IN MODEL O                PACKAGE O               CONNECTED TO MODEL O                PACKAGE SSM              ON UNIT   6556 AT TIME STEP      5, STRESS PERIOD      1
 UBDSV06 SAVING              CNC IN MODEL O                PACKAGE O               CONNECTED TO MODEL O                PACKAGE CNC              ON UNIT   6556 AT TIME STEP      5, STRESS PERIOD      1

 SSM PACKAGE (SSM) FLOW RATES   PERIOD      1   STEP        5
 ------------------------------------------------------------------------------------------------
   NUMBER   CELLID                   BOUND Q        SSM CONC          RATE         PACKAGE NAME  
 ------------------------------------------------------------------------------------------------
     1      (1,1,1)               2.08333321E-02  55550.796       1157.3082            CHD       
     2      (2,1,1)               2.08333321E-02  55550.796       1157.3082            CHD       
     3      (3,1,1)               2.08333321E-02  55550.796       1157.3082            CHD       
     4      (4,1,1)               0.0000000       0.0000000       0.0000000            CHD       
     5      (5,1,1)               0.0000000       0.0000000       0.0000000            CHD       
     6      (6,1,1)               0.0000000       0.0000000       0.0000000            CHD       
     7      (7,1,1)               0.0000000       0.0000000       0.0000000            CHD       
     8      (8,1,1)               0.0000000       0.0000000       0.0000000            CHD       
     9      (9,1,1)               0.0000000       0.0000000       0.0000000            CHD       
     10     (10,1,1)              0.0000000       0.0000000       0.0000000            CHD       
     11     (1,1,25)             -2.08333353E-02  55390.772      -1153.9745            CHD       
     12     (2,1,25)             -2.08333353E-02  55390.772      -1153.9745            CHD       
[...]
               21              22              23              24              25
 ................................................................................................................................................................
   1  55390.78359     55393.61087     55397.72341     55401.07788     55403.22316     55404.50351     55405.26357     55405.70665     55405.95832     55406.10276    
      55406.19341     55406.26028     55406.31648     55406.36326     55406.39708     55406.39705     55406.38206     55406.33412     55406.23691     55406.07895    
      55405.84108     55405.51580     55405.09859     55404.59647     55404.05984    

 CONCENTRATION WILL BE SAVED ON UNIT 6557 AT END OF TIME STEP  199, STRESS PERIOD    1


  MASS BUDGET FOR ENTIRE MODEL AT END OF TIME STEP  199, STRESS PERIOD   1
  ---------------------------------------------------------------------------------------------------

     CUMULATIVE MASS      M       RATES FOR THIS TIME STEP      M/T          PACKAGE NAME    
     ------------------                 ------------------------                     ----------------

           IN:                                      IN:
           ---                                      ---
     STORAGE-AQUEOUS =        2150.8293       STORAGE-AQUEOUS =           1.2958     MST                              
                 CHD =     6909130.0281                   CHD =        3471.9247     SSM_CHD                          
                 CNC =    16073676.9459                   CNC =        8077.2433     CNC                              

            TOTAL IN =    22984957.8033              TOTAL IN =       11550.4637

          OUT:                                     OUT:
          ----                                     ----
     STORAGE-AQUEOUS =        7052.7303       STORAGE-AQUEOUS =           1.6960     MST                              
                 CHD =    22965412.8667                   CHD =       11542.5126     SSM_CHD                          
                 CNC =       12492.2063                   CNC =           6.2551     CNC                              

           TOTAL OUT =    22984957.8033             TOTAL OUT =       11550.4637

            IN - OUT =       1.2964E-06              IN - OUT =      -1.7826E-10

 PERCENT DISCREPANCY =           0.00     PERCENT DISCREPANCY =          -0.00




         TIME SUMMARY AT END OF TIME STEP  199 IN STRESS PERIOD    1
                    SECONDS     MINUTES      HOURS       DAYS        YEARS
                    -----------------------------------------------------------
   TIME STEP LENGTH 8.64000E+05  14400.      240.00      10.000     2.73785E-02
 STRESS PERIOD TIME 1.71936E+08 2.86560E+06  47760.      1990.0      5.4483    
         TOTAL TIME 1.71936E+08 2.86560E+06  47760.      1990.0      5.4483    


end timestep


start timestep kper="1" kstp="200" mode="normal"

 UBDSV06 SAVING  SOURCE-SINK MIX IN MODEL O                PACKAGE O               CONNECTED TO MODEL O                PACKAGE SSM              ON UNIT   6556 AT TIME STEP    200, STRESS PERIOD      1
 UBDSV06 SAVING              CNC IN MODEL O                PACKAGE O               CONNECTED TO MODEL O                PACKAGE CNC              ON UNIT   6556 AT TIME STEP    200, STRESS PERIOD      1

 SSM PACKAGE (SSM) FLOW RATES   PERIOD      1   STEP      200
 ------------------------------------------------------------------------------------------------
   NUMBER   CELLID                   BOUND Q        SSM CONC          RATE         PACKAGE NAME  
 ------------------------------------------------------------------------------------------------
     1      (1,1,1)               2.08333330E-02  55550.796       1157.3082            CHD       
     2      (2,1,1)               2.08333330E-02  55550.796       1157.3082            CHD       
     3      (3,1,1)               2.08333330E-02  55550.796       1157.3082            CHD       
     4      (4,1,1)               0.0000000       0.0000000       0.0000000            CHD       
     5      (5,1,1)               0.0000000       0.0000000       0.0000000            CHD       
     6      (6,1,1)               0.0000000       0.0000000       0.0000000            CHD       
     7      (7,1,1)               0.0000000       0.0000000       0.0000000            CHD       
     8      (8,1,1)               0.0000000       0.0000000       0.0000000            CHD       
     9      (9,1,1)               0.0000000       0.0000000       0.0000000            CHD       
     10     (10,1,1)              0.0000000       0.0000000       0.0000000            CHD       
     11     (1,1,25)             -2.08333337E-02  55404.149      -1154.2531            CHD       
     12     (2,1,25)             -2.08333337E-02  55404.149      -1154.2531            CHD       
     13     (3,1,25)             -2.08333337E-02  55404.149      -1154.2531            CHD       
     14     (4,1,25)             -2.08333337E-02  55404.149      -1154.2531            CHD       
     15     (5,1,25)             -2.08333337E-02  55404.149      -1154.2531            CHD       
     16     (6,1,25)             -2.08333337E-02  55404.149      -1154.2531            CHD       
     17     (7,1,25)             -2.08333337E-02  55404.149      -1154.2531            CHD       
     18     (8,1,25)             -2.08333337E-02  55404.149      -1154.2531            CHD       
     19     (9,1,25)             -2.08333337E-02  55404.149      -1154.2531            CHD       
     20     (10,1,25)            -2.08333337E-02  55404.149      -1154.2531            CHD       
 ------------------------------------------------------------------------------------------------




 CNC PACKAGE (CNC) FLOW RATES   PERIOD      1   STEP      200
 -----------------------------------------------
   NUMBER   CELLID                    RATE      
 -----------------------------------------------
     1      (4,1,1)               1147.5330     
     2      (5,1,1)               1153.8550     
     3      (6,1,1)               1153.8936     
     4      (7,1,1)               1153.9107     
     5      (8,1,1)               1153.9244     
     6      (9,1,1)               1153.9334     
     7      (10,1,1)              1153.9378     
 -----------------------------------------------



1
  CONCENTRATION IN LAYER   1 AT END OF TIME STEP 200 IN STRESS PERIOD    1
  ---------------------------------------------------------------------------

                1               2               3               4               5               6               7               8               9              10
               11              12              13              14              15              16              17              18              19              20
               21              22              23              24              25
 ................................................................................................................................................................
   1  55447.42156     55423.88904     55410.57853     55407.10347     55407.61385     55407.19565     55406.68722     55406.42351     55406.31715     55406.28038    
      55406.28559     55406.30339     55406.33288     55406.36752     55406.39746     55406.39783     55406.38444     55406.34032     55406.24903     55406.10015    
      55405.87316     55405.56049     55405.15741     55404.67043     55404.14860    
1
  CONCENTRATION IN LAYER   2 AT END OF TIME STEP 200 IN STRESS PERIOD    1
  ---------------------------------------------------------------------------

                1               2               3               4               5               6               7               8               9              10
               11              12              13              14              15              16              17              18              19              20
               21              22              23              24              25
 ................................................................................................................................................................
   1  55438.86614     55419.98221     55409.37704     55406.92982     55407.39636     55407.04013     55406.60865     55406.38628     55406.29891     55406.27175    
      55406.28026     55406.30087     55406.33176     55406.36700     55406.39723     55406.39766     55406.38433     55406.34025     55406.24900     55406.10014    
      55405.87315     55405.56049     55405.15741     55404.67043     55404.14860    
1
  CONCENTRATION IN LAYER   3 AT END OF TIME STEP 200 IN STRESS PERIOD    1
  ---------------------------------------------------------------------------

                1               2               3               4               5               6               7               8               9              10
               11              12              13              14              15              16              17              18              19              20
               21              22              23              24              25
 ................................................................................................................................................................
   1  55420.80847     55413.03617     55407.28430     55406.70787     55406.99623     55406.75240     55406.46230     55406.31595     55406.26434     55406.25503    
      55406.27039     55406.29613     55406.32961     55406.36601     55406.39679     55406.39733     55406.38412     55406.34014     55406.24894     55406.10011    
      55405.87313     55405.56048     55405.15740     55404.67043     55404.14860    
1
  CONCENTRATION IN LAYER   4 AT END OF TIME STEP 200 IN STRESS PERIOD    1
  ---------------------------------------------------------------------------

                1               2               3               4               5               6               7               8               9              10
               11              12              13              14              15              16              17              18              19              20
               21              22              23              24              25
 ................................................................................................................................................................
   1  55390.78359     55405.10115     55404.83586     55406.25883     55406.43803     55406.37766     55406.26774     55406.22015     55406.21707     55406.23113    
      55406.25746     55406.28973     55406.32665     55406.36465     55406.39618     55406.39690     55406.38383     55406.33998     55406.24886     55406.10008    
      55405.87312     55405.56047     55405.15740     55404.67042     55404.14860    
1
  CONCENTRATION IN LAYER   5 AT END OF TIME STEP 200 IN STRESS PERIOD    1
  ---------------------------------------------------------------------------

                1               2               3               4               5               6               7               8               9              10
               11              12              13              14              15              16              17              18              19              20
               21              22              23              24              25
 ................................................................................................................................................................
   1  55390.78359     55399.97356     55402.59083     55405.27102     55405.77046     55405.96150     55406.04657     55406.10908     55406.16091     55406.20307    
      55406.24272     55406.28231     55406.32317     55406.36304     55406.39547     55406.39639     55406.38350     55406.33981     55406.24877     55406.10004    
      55405.87310     55405.56047     55405.15739     55404.67042     55404.14860    
1
  CONCENTRATION IN LAYER   6 AT END OF TIME STEP 200 IN STRESS PERIOD    1
  ---------------------------------------------------------------------------

                1               2               3               4               5               6               7               8               9              10
               11              12              13              14              15              16              17              18              19              20
               21              22              23              24              25
 ................................................................................................................................................................
   1  55390.78359     55397.00986     55400.91186     55404.11285     55405.06734     55405.54389     55405.82145     55405.99356     55406.10222     55406.17346    
      55406.22738     55406.27458     55406.31952     55406.36134     55406.39473     55406.39585     55406.38315     55406.33963     55406.24869     55406.10001    
      55405.87309     55405.56046     55405.15739     55404.67042     55404.14859    
1
  CONCENTRATION IN LAYER   7 AT END OF TIME STEP 200 IN STRESS PERIOD    1
  ---------------------------------------------------------------------------

                1               2               3               4               5               6               7               8               9              10
               11              12              13              14              15              16              17              18              19              20
               21              22              23              24              25
 ................................................................................................................................................................
   1  55390.78359     55395.69684     55400.03145     55403.02048     55404.40136     55405.16015     55405.61283     55405.88488     55406.04663     55406.14528    
      55406.21285     55406.26724     55406.31609     55406.35974     55406.39402     55406.39535     55406.38283     55406.33947     55406.24861     55406.09998    
      55405.87308     55405.56046     55405.15739     55404.67042     55404.14859    
1
  CONCENTRATION IN LAYER   8 AT END OF TIME STEP 200 IN STRESS PERIOD    1
  ---------------------------------------------------------------------------

                1               2               3               4               5               6               7               8               9              10
               11              12              13              14              15              16              17              18              19              20
               21              22              23              24              25
 ................................................................................................................................................................
   1  55390.78359     55394.64267     55398.95371     55402.09561     55403.84041     55404.84158     55405.43883     55405.79327     55405.99949     55406.12131    
      55406.20054     55406.26097     55406.31320     55406.35838     55406.39341     55406.39492     55406.38256     55406.33933     55406.24855     55406.09996    
      55405.87308     55405.56046     55405.15739     55404.67042     55404.14859    
1
  CONCENTRATION IN LAYER   9 AT END OF TIME STEP 200 IN STRESS PERIOD    1
  ---------------------------------------------------------------------------

                1               2               3               4               5               6               7               8               9              10
               11              12              13              14              15              16              17              18              19              20
               21              22              23              24              25
 ................................................................................................................................................................
   1  55390.78359     55393.94994     55398.15027     55401.43283     55403.43678     55404.61374     55405.31413     55405.72715     55405.96533     55406.10391    
      55406.19161     55406.25640     55406.31112     55406.35740     55406.39298     55406.39461     55406.38237     55406.33924     55406.24851     55406.09995    
      55405.87307     55405.56046     55405.15739     55404.67042     55404.14859    
1
  CONCENTRATION IN LAYER  10 AT END OF TIME STEP 200 IN STRESS PERIOD    1
  ---------------------------------------------------------------------------

                1               2               3               4               5               6               7               8               9              10
               11              12              13              14              15              16              17              18              19              20
               21              22              23              24              25
 ................................................................................................................................................................
   1  55390.78359     55393.61652     55397.73024     55401.08842     55403.22607     55404.49502     55405.24911     55405.69254     55405.94740     55406.09477    
      55406.18693     55406.25400     55406.31004     55406.35690     55406.39276     55406.39446     55406.38228     55406.33920     55406.24849     55406.09995    
      55405.87308     55405.56046     55405.15739     55404.67042     55404.14859    

 CONCENTRATION WILL BE SAVED ON UNIT 6557 AT END OF TIME STEP  200, STRESS PERIOD    1


  MASS BUDGET FOR ENTIRE MODEL AT END OF TIME STEP  200, STRESS PERIOD   1
  ---------------------------------------------------------------------------------------------------

     CUMULATIVE MASS      M       RATES FOR THIS TIME STEP      M/T          PACKAGE NAME    
     ------------------                 ------------------------                     ----------------

           IN:                                      IN:
           ---                                      ---
     STORAGE-AQUEOUS =        2163.1719       STORAGE-AQUEOUS =           1.2343     MST                              
                 CHD =     6943849.2748                   CHD =        3471.9247     SSM_CHD                          
                 CNC =    16154449.3757                   CNC =        8077.2430     CNC                              

            TOTAL IN =    23100461.8224              TOTAL IN =       11550.4019

          OUT:                                     OUT:
          ----                                     ----
     STORAGE-AQUEOUS =        7068.8861       STORAGE-AQUEOUS =           1.6156     MST                              
                 CHD =    23080838.1781                   CHD =       11542.5311     SSM_CHD                          
                 CNC =       12554.7581                   CNC =           6.2552     CNC                              

           TOTAL OUT =    23100461.8224             TOTAL OUT =       11550.4019

            IN - OUT =       1.3001E-06              IN - OUT =       3.6380E-11

 PERCENT DISCREPANCY =           0.00     PERCENT DISCREPANCY =           0.00




         TIME SUMMARY AT END OF TIME STEP  200 IN STRESS PERIOD    1
                    SECONDS     MINUTES      HOURS       DAYS        YEARS
                    -----------------------------------------------------------
   TIME STEP LENGTH 8.64000E+05  14400.      240.00      10.000     2.73785E-02
 STRESS PERIOD TIME 1.72800E+08 2.88000E+06  48000.      2000.0      5.4757    
         TOTAL TIME 1.72800E+08 2.88000E+06  48000.      2000.0      5.4757    


end timestep

