                                   MODFLOW 6
                U.S. GEOLOGICAL SURVEY MODULAR HYDROLOGIC MODEL
                       GROUNDWATER TRANSPORT MODEL (GWT)
                VERSION 6.5.0.dev0+prt (preliminary) 10/07/2023
                               ***DEVELOP MODE***

   MODFLOW 6 compiled Oct 07 2023 02:19:02 with Intel(R) Fortran Intel(R) 64
   Compiler Classic for applications running on Intel(R) 64, Version 2021.7.0
                             Build 20220726_000000

This software is preliminary or provisional and is subject to 
revision. It is being provided to meet the need for timely best 
science. The software has not received final approval by the U.S. 
Geological Survey (USGS). No warranty, expressed or implied, is made 
by the USGS or the U.S. Government as to the functionality of the 
software and related material nor shall the fact of release 
constitute any such warranty. The software is provided on the 
condition that neither the USGS nor the U.S. Government shall be held 
liable for any damages resulting from the authorized or unauthorized 
use of the software.


As a work of the United States Government, this USGS product is 
in the public domain within the United States. You can copy, 
modify, distribute, and perform the work, even for commercial 
purposes, all without asking permission. Additionally, USGS 
waives copyright and related rights in the work worldwide 
through CC0 1.0 Universal Public Domain Dedication 
(https://creativecommons.org/publicdomain/zero/1.0/).

The following GNU Lesser General Public License (LGPL) libraries
are used in this USGS product:

    SPARSKIT version 2.0
      ilut, luson, and qsplit 
      (https://www-users.cse.umn.edu/~saad/software/SPARSKIT/)

    RCM - Reverse Cuthill McKee Ordering
      (https://people.math.sc.edu/Burkardt/f_src/rcm/rcm.html)

    BLAS - Basic Linear Algebra Subprograms Level 1
      (https://people.math.sc.edu/Burkardt/f_src/blas1_d/blas1_d.html)

    SPARSEKIT - Sparse Matrix Utility Package
      amux, dperm, dvperm, rperm, and cperm
      (https://people.sc.fsu.edu/~jburkardt/f77_src/sparsekit/sparsekit.html)

The following BSD-3 License libraries are used in this USGS product:

    Modern Fortran DAG Library
      Copyright (c) 2018, Jacob Williams
      All rights reserved.
      (https://github.com/jacobwilliams/daglib)

MODFLOW 6 compiler options: /Isrc\libmf6core.a.p /Isrc /I..\src
/Isrc\libmf6_external.a.p /MTd /nologo /warn:general /warn:truncated_source
/stand:f08 /Zi /traceback /O2 /fpe:0 /heap-arrays:0 /traceback /fpp
/Qdiag-disable:7416 /Qdiag-disable:7025 /Qdiag-disable:5268
/Fdsrc\libmf6core.a.p\Utilities_compilerversion.F90.pdb
/module:src\libmf6core.a.p
/Fosrc/libmf6core.a.p/Utilities_compilerversion.F90.obj /c

System command used to initiate simulation:
c:\Users\portega\anaconda3\envs\mf6rtm\python.exe -m ipykernel_launcher --f=c:\Users\portega\AppData\Roaming\jupyter\runtime\kernel-v2-17404w7nug58txkWt.json

MODFLOW was compiled using uniform precision.

Real Variables
  KIND: 8
  TINY (smallest non-zero value):    2.225074-308
  HUGE (largest value):    1.797693+308
  PRECISION: 15
  SIZE IN BITS: 64

Integer Variables
  KIND: 4
  HUGE (largest value): 2147483647
  SIZE IN BITS: 32

Long Integer Variables
  KIND: 8
  HUGE (largest value): 9223372036854775807
  SIZE IN BITS: 64

Logical Variables
  KIND: 4
  SIZE IN BITS: 32
 
 NAMEFILE OPTIONS:
 END NAMEFILE OPTIONS:

 DIS -- STRUCTURED GRID DISCRETIZATION PACKAGE, VERSION 2 : 3/27/2014 - INPUT READ FROM MEMPATH: __INPUT__/O/DIS                                   


 DSP-- DISPERSION PACKAGE, VERSION 1, 1/24/2018 INPUT READ FROM MEMPATH: __INPUT__/O/DSP                                   


 Setting Discretization Options
    Model length unit [0=UND, 1=FEET, 2=METERS, 3=CENTIMETERS] set as 2
 End Setting Discretization Options

 Setting Discretization Dimensions
    NLAY = 10
    NROW = 1
    NCOL = 25
 End Setting Discretization Dimensions

 Setting Discretization Griddata
    DELR set from input file
    DELC set from input file
    TOP set from input file
    BOTM set from input file
    IDOMAIN set from input file
 End Setting Discretization Griddata


 FMI -- FLOW MODEL INTERFACE,' VERSION 2, 8/17/2023
  FLOWS PROVIDED BY A GWF MODEL IN THIS SIMULATION

 ADV-- ADVECTION PACKAGE, VERSION 1, 8/25/2017 INPUT READ FROM UNIT 1124


 # File generated by Flopy version 3.5.0.dev0 on 07/12/2024 at 15:45:50.
 PROCESSING ADVECTION OPTIONS
    ADVECTION WEIGHTING SCHEME HAS BEEN SET TO: TVD
 END OF ADVECTION OPTIONS
 Setting DSP Options
    XT3D formulation [0=INACTIVE, 1=ACTIVE, 3=ACTIVE RHS] set to: 0
 End Setting DSP Options

 Setting DSP Griddata
    ALH set from input file
    ATH1 set from input file
    ATV set from input file
 End Setting DSP Griddata


 CNC   -- CNC PACKAGE, VERSION 8, 2/22/2014 INPUT READ FROM UNIT 1158
 # File generated by Flopy version 3.5.0.dev0 on 07/12/2024 at 15:45:50.

 PROCESSING CNC OPTIONS
    CNC FLOWS WILL BE PRINTED TO LISTING FILE.
    FLOWS WILL BE SAVED TO BUDGET FILE SPECIFIED IN OUTPUT CONTROL
 END OF CNC OPTIONS

 PROCESSING CNC DIMENSIONS
    MAXBOUND =       7
 END OF CNC DIMENSIONS

 IC -- INITIAL CONDITIONS PACKAGE, VERSION 8, 3/28/2015 INPUT READ FROM UNIT 1122
 # File generated by Flopy version 3.5.0.dev0 on 07/12/2024 at 15:45:50.
 PROCESSING GRIDDATA

 OPENED O.ic_strt_layer1.txt
 FILE TYPE:OPEN/CLOSE   UNIT 1952   STATUS:OLD                 
 FORMAT:FORMATTED              ACCESS:SEQUENTIAL          
 ACTION:READ                


 OPENED O.ic_strt_layer2.txt
 FILE TYPE:OPEN/CLOSE   UNIT 1953   STATUS:OLD                 
 FORMAT:FORMATTED              ACCESS:SEQUENTIAL          
 ACTION:READ                


 OPENED O.ic_strt_layer3.txt
 FILE TYPE:OPEN/CLOSE   UNIT 1954   STATUS:OLD                 
 FORMAT:FORMATTED              ACCESS:SEQUENTIAL          
 ACTION:READ                


 OPENED O.ic_strt_layer4.txt
 FILE TYPE:OPEN/CLOSE   UNIT 1955   STATUS:OLD                 
 FORMAT:FORMATTED              ACCESS:SEQUENTIAL          
 ACTION:READ                


 OPENED O.ic_strt_layer5.txt
 FILE TYPE:OPEN/CLOSE   UNIT 1956   STATUS:OLD                 
 FORMAT:FORMATTED              ACCESS:SEQUENTIAL          
 ACTION:READ                


 OPENED O.ic_strt_layer6.txt
 FILE TYPE:OPEN/CLOSE   UNIT 1957   STATUS:OLD                 
 FORMAT:FORMATTED              ACCESS:SEQUENTIAL          
 ACTION:READ                


 OPENED O.ic_strt_layer7.txt
 FILE TYPE:OPEN/CLOSE   UNIT 1958   STATUS:OLD                 
 FORMAT:FORMATTED              ACCESS:SEQUENTIAL          
 ACTION:READ                


 OPENED O.ic_strt_layer8.txt
 FILE TYPE:OPEN/CLOSE   UNIT 1959   STATUS:OLD                 
 FORMAT:FORMATTED              ACCESS:SEQUENTIAL          
 ACTION:READ                


 OPENED O.ic_strt_layer9.txt
 FILE TYPE:OPEN/CLOSE   UNIT 1960   STATUS:OLD                 
 FORMAT:FORMATTED              ACCESS:SEQUENTIAL          
 ACTION:READ                


 OPENED O.ic_strt_layer10.txt
 FILE TYPE:OPEN/CLOSE   UNIT 1961   STATUS:OLD                 
 FORMAT:FORMATTED              ACCESS:SEQUENTIAL          
 ACTION:READ                

 END PROCESSING GRIDDATA

 MST -- MOBILE STORAGE AND TRANSFER PACKAGE, VERSION 1, 7/29/2020 INPUT READ FROM UNIT 1123


 # File generated by Flopy version 3.5.0.dev0 on 07/12/2024 at 15:45:50.
 PROCESSING MOBILE STORAGE AND TRANSFER OPTIONS
 END OF MOBILE STORAGE AND TRANSFER OPTIONS
 PROCESSING GRIDDATA

 OPENED O.mst_porosity.txt
 FILE TYPE:OPEN/CLOSE   UNIT 1962   STATUS:OLD                 
 FORMAT:FORMATTED              ACCESS:SEQUENTIAL          
 ACTION:READ                

 END PROCESSING GRIDDATA

 SSM -- SOURCE-SINK MIXING PACKAGE, VERSION 1, 8/25/2017 INPUT READ FROM UNIT 1156


 # File generated by Flopy version 3.5.0.dev0 on 07/12/2024 at 15:45:50.
 PROCESSING SSM OPTIONS
    SSM FLOW INFORMATION WILL BE PRINTED TO LISTING FILE WHENEVER ICBCFL IS NOT ZERO.
    CELL-BY-CELL FLOW INFORMATION WILL BE SAVED TO BINARY FILE WHENEVER ICBCFL IS NOT ZERO.
 END OF SSM OPTIONS

 OPENED O.ssm_sources.txt
 FILE TYPE:OPEN/CLOSE   UNIT 1963   STATUS:OLD                 
 FORMAT:FORMATTED              ACCESS:SEQUENTIAL          
 ACTION:READ                

 PROCESSING SOURCES
 AUX SOURCE DETECTED.
    USING AUX COLUMN 2 IN PACKAGE CHD
 END PROCESSING SOURCES
 OPTIONAL FILEINPUT BLOCK NOT FOUND.  CONTINUING.
      THE LAST TIME STEP WILL BE PRINTED
      THE LAST TIME STEP WILL BE PRINTED
 # File generated by Flopy version 3.5.0.dev0 on 07/12/2024 at 15:45:50.

 PROCESSING OC OPTIONS

    BUDGET INFORMATION WILL BE WRITTEN TO:
      UNIT NUMBER: 1964
      FILE NAME: O.cbb

 OPENED O.cbb
 FILE TYPE:DATA(BINARY)   UNIT 1964   STATUS:REPLACE             
 FORMAT:UNFORMATTED            ACCESS:STREAM              
 ACTION:READWRITE           

    CONCENTRATION INFORMATION WILL BE WRITTEN TO:
      UNIT NUMBER: 1965
      FILE NAME: O.ucn

 OPENED O.ucn
 FILE TYPE:DATA(BINARY)   UNIT 1965   STATUS:REPLACE             
 FORMAT:UNFORMATTED            ACCESS:STREAM              
 ACTION:READWRITE           

 END OF OC OPTIONS

start timestep kper="1" kstp="1" mode="normal"


 BEGIN READING OUTPUT CONTROL FOR STRESS PERIOD 1
      ALL TIME STEPS WILL BE SAVED
      ALL TIME STEPS WILL BE SAVED
      ALL TIME STEPS WILL BE PRINTED
      ALL TIME STEPS WILL BE PRINTED

 END READING OUTPUT CONTROL FOR STRESS PERIOD 1

 OPENED O.cnc_stress_period_data_1.txt
 FILE TYPE:OPEN/CLOSE   UNIT 2135   STATUS:OLD                 
 FORMAT:FORMATTED              ACCESS:SEQUENTIAL          
 ACTION:READ                

 UBDSV06 SAVING  SOURCE-SINK MIX IN MODEL O                PACKAGE O               CONNECTED TO MODEL O                PACKAGE SSM              ON UNIT   1964 AT TIME STEP      1, STRESS PERIOD      1
 UBDSV06 SAVING              CNC IN MODEL O                PACKAGE O               CONNECTED TO MODEL O                PACKAGE CNC              ON UNIT   1964 AT TIME STEP      1, STRESS PERIOD      1

 SSM PACKAGE (SSM) FLOW RATES   PERIOD      1   STEP        1
 ------------------------------------------------------------------------------------------------
   NUMBER   CELLID                   BOUND Q        SSM CONC          RATE         PACKAGE NAME  
 ------------------------------------------------------------------------------------------------
     1      (1,1,1)               2.08333361E-02  55550.815       1157.3088            CHD       
     2      (2,1,1)               2.08333361E-02  55550.815       1157.3088            CHD       
     3      (3,1,1)               2.08333361E-02  55550.815       1157.3088            CHD       
     4      (4,1,1)               0.0000000       0.0000000       0.0000000            CHD       
     5      (5,1,1)               0.0000000       0.0000000       0.0000000            CHD       
     6      (6,1,1)               0.0000000       0.0000000       0.0000000            CHD       
     7      (7,1,1)               0.0000000       0.0000000       0.0000000            CHD       
     8      (8,1,1)               0.0000000       0.0000000       0.0000000            CHD       
     9      (9,1,1)               0.0000000       0.0000000       0.0000000            CHD       
     10     (10,1,1)              0.0000000       0.0000000       0.0000000            CHD       
     11     (1,1,25)             -2.08333402E-02  55390.783      -1153.9750            CHD       
     12     (2,1,25)             -2.08333402E-02  55390.783      -1153.9750            CHD       
     13     (3,1,25)             -2.08333402E-02  55390.783      -1153.9750            CHD       
     14     (4,1,25)             -2.08333403E-02  55390.783      -1153.9750            CHD       
     15     (5,1,25)             -2.08333403E-02  55390.783      -1153.9750            CHD       
     16     (6,1,25)             -2.08333403E-02  55390.783      -1153.9750            CHD       
     17     (7,1,25)             -2.08333403E-02  55390.783      -1153.9750            CHD       
     18     (8,1,25)             -2.08333403E-02  55390.783      -1153.9750            CHD       
     19     (9,1,25)             -2.08333403E-02  55390.783      -1153.9750            CHD       
     20     (10,1,25)            -2.08333403E-02  55390.783      -1153.9750            CHD       
 ------------------------------------------------------------------------------------------------




 CNC PACKAGE (CNC) FLOW RATES   PERIOD      1   STEP        1
 -----------------------------------------------
   NUMBER   CELLID                    RATE      
 -----------------------------------------------
     1      (4,1,1)               1151.6157     
     2      (5,1,1)               1153.9708     
     3      (6,1,1)               1153.9732     
     4      (7,1,1)               1153.9741     
     5      (8,1,1)               1153.9745     
     6      (9,1,1)               1153.9747     
     7      (10,1,1)              1153.9747     
 -----------------------------------------------



1
  CONCENTRATION IN LAYER   1 AT END OF TIME STEP   1 IN STRESS PERIOD    1
  ---------------------------------------------------------------------------

                1               2               3               4               5               6               7               8               9              10
               11              12              13              14              15              16              17              18              19              20
               21              22              23              24              25
 ................................................................................................................................................................
   1  55409.87877     55394.08822     55391.09425     55390.81125     55390.78636     55390.78397     55390.78343     55390.78336     55390.78350     55390.78371    
      55390.78372     55390.78357     55390.78336     55390.78328     55390.78331     55390.78334     55390.78333     55390.78329     55390.78326     55390.78328    
      55390.78331     55390.78336     55390.78341     55390.78346     55390.78348    
1
  CONCENTRATION IN LAYER   2 AT END OF TIME STEP   1 IN STRESS PERIOD    1
  ---------------------------------------------------------------------------

                1               2               3               4               5               6               7               8               9              10
               11              12              13              14              15              16              17              18              19              20
               21              22              23              24              25
 ................................................................................................................................................................
   1  55408.10790     55393.67935     55391.06011     55390.80905     55390.78646     55390.78411     55390.78339     55390.78327     55390.78352     55390.78387    
      55390.78388     55390.78360     55390.78326     55390.78314     55390.78319     55390.78325     55390.78322     55390.78316     55390.78312     55390.78314    
      55390.78321     55390.78329     55390.78336     55390.78346     55390.78348    
1
  CONCENTRATION IN LAYER   3 AT END OF TIME STEP   1 IN STRESS PERIOD    1
  ---------------------------------------------------------------------------

                1               2               3               4               5               6               7               8               9              10
               11              12              13              14              15              16              17              18              19              20
               21              22              23              24              25
 ................................................................................................................................................................
   1  55403.11348     55392.81476     55391.00071     55390.80530     55390.78659     55390.78430     55390.78332     55390.78312     55390.78356     55390.78414    
      55390.78413     55390.78364     55390.78309     55390.78291     55390.78301     55390.78311     55390.78307     55390.78295     55390.78290     55390.78294    
      55390.78305     55390.78318     55390.78330     55390.78344     55390.78348    
1
  CONCENTRATION IN LAYER   4 AT END OF TIME STEP   1 IN STRESS PERIOD    1
  ---------------------------------------------------------------------------

                1               2               3               4               5               6               7               8               9              10
               11              12              13              14              15              16              17              18              19              20
               21              22              23              24              25
 ................................................................................................................................................................
   1  55390.78237     55391.60152     55390.94128     55390.80107     55390.78657     55390.78442     55390.78323     55390.78297     55390.78359     55390.78438    
      55390.78436     55390.78369     55390.78295     55390.78273     55390.78288     55390.78302     55390.78295     55390.78279     55390.78271     55390.78277    
      55390.78291     55390.78308     55390.78323     55390.78342     55390.78348    
1
  CONCENTRATION IN LAYER   5 AT END OF TIME STEP   1 IN STRESS PERIOD    1
  ---------------------------------------------------------------------------

                1               2               3               4               5               6               7               8               9              10
               11              12              13              14              15              16              17              18              19              20
               21              22              23              24              25
 ................................................................................................................................................................
   1  55390.78237     55391.11357     55390.87641     55390.79633     55390.78636     55390.78443     55390.78316     55390.78287     55390.78360     55390.78453    
      55390.78450     55390.78372     55390.78287     55390.78263     55390.78282     55390.78298     55390.78290     55390.78271     55390.78261     55390.78267    
      55390.78283     55390.78303     55390.78319     55390.78340     55390.78348    
1
  CONCENTRATION IN LAYER   6 AT END OF TIME STEP   1 IN STRESS PERIOD    1
  ---------------------------------------------------------------------------

                1               2               3               4               5               6               7               8               9              10
               11              12              13              14              15              16              17              18              19              20
               21              22              23              24              25
 ................................................................................................................................................................
   1  55390.78237     55390.91709     55390.83314     55390.79219     55390.78602     55390.78438     55390.78313     55390.78284     55390.78361     55390.78458    
      55390.78455     55390.78374     55390.78286     55390.78262     55390.78282     55390.78299     55390.78290     55390.78270     55390.78258     55390.78265    
      55390.78281     55390.78301     55390.78317     55390.78339     55390.78348    
1
  CONCENTRATION IN LAYER   7 AT END OF TIME STEP   1 IN STRESS PERIOD    1
  ---------------------------------------------------------------------------

                1               2               3               4               5               6               7               8               9              10
               11              12              13              14              15              16              17              18              19              20
               21              22              23              24              25
 ................................................................................................................................................................
   1  55390.78237     55390.83783     55390.80863     55390.78914     55390.78564     55390.78430     55390.78314     55390.78287     55390.78361     55390.78455    
      55390.78452     55390.78374     55390.78289     55390.78266     55390.78285     55390.78302     55390.78293     55390.78273     55390.78262     55390.78268    
      55390.78283     55390.78302     55390.78318     55390.78339     55390.78348    
1
  CONCENTRATION IN LAYER   8 AT END OF TIME STEP   1 IN STRESS PERIOD    1
  ---------------------------------------------------------------------------

                1               2               3               4               5               6               7               8               9              10
               11              12              13              14              15              16              17              18              19              20
               21              22              23              24              25
 ................................................................................................................................................................
   1  55390.78237     55390.80590     55390.79585     55390.78716     55390.78527     55390.78419     55390.78317     55390.78293     55390.78360     55390.78445    
      55390.78442     55390.78372     55390.78295     55390.78274     55390.78291     55390.78306     55390.78298     55390.78280     55390.78270     55390.78275    
      55390.78289     55390.78306     55390.78320     55390.78340     55390.78348    
1
  CONCENTRATION IN LAYER   9 AT END OF TIME STEP   1 IN STRESS PERIOD    1
  ---------------------------------------------------------------------------

                1               2               3               4               5               6               7               8               9              10
               11              12              13              14              15              16              17              18              19              20
               21              22              23              24              25
 ................................................................................................................................................................
   1  55390.78237     55390.79324     55390.78972     55390.78592     55390.78488     55390.78406     55390.78324     55390.78304     55390.78358     55390.78426    
      55390.78424     55390.78368     55390.78306     55390.78287     55390.78301     55390.78313     55390.78307     55390.78293     55390.78284     55390.78288    
      55390.78299     55390.78313     55390.78325     55390.78341     55390.78348    
1
  CONCENTRATION IN LAYER  10 AT END OF TIME STEP   1 IN STRESS PERIOD    1
  ---------------------------------------------------------------------------

                1               2               3               4               5               6               7               8               9              10
               11              12              13              14              15              16              17              18              19              20
               21              22              23              24              25
 ................................................................................................................................................................
   1  55390.78237     55390.78881     55390.78724     55390.78516     55390.78439     55390.78384     55390.78335     55390.78323     55390.78353     55390.78393    
      55390.78393     55390.78362     55390.78325     55390.78312     55390.78319     55390.78327     55390.78324     55390.78316     55390.78310     55390.78312    
      55390.78319     55390.78327     55390.78334     55390.78343     55390.78348    

 CONCENTRATION WILL BE SAVED ON UNIT 1965 AT END OF TIME STEP    1, STRESS PERIOD    1


  MASS BUDGET FOR ENTIRE MODEL AT END OF TIME STEP    1, STRESS PERIOD   1
  ---------------------------------------------------------------------------------------------------

     CUMULATIVE MASS      M       RATES FOR THIS TIME STEP      M/T          PACKAGE NAME    
     ------------------                 ------------------------                     ----------------

           IN:                                      IN:
           ---                                      ---
     STORAGE-AQUEOUS =       8.1928E-02       STORAGE-AQUEOUS =       8.1928E-03     MST                              
                 CHD =       34719.2639                   CHD =        3471.9264     SSM_CHD                          
                 CNC =       80778.0710                   CNC =        8077.8071     CNC                              

            TOTAL IN =      115497.4168              TOTAL IN =       11549.7417

          OUT:                                     OUT:
          ----                                     ----
     STORAGE-AQUEOUS =          76.4205       STORAGE-AQUEOUS =           7.6421     MST                              
                 CHD =      115397.5032                   CHD =       11539.7503     SSM_CHD                          
                 CNC =          23.4931                   CNC =           2.3493     CNC                              

           TOTAL OUT =      115497.4168             TOTAL OUT =       11549.7417

            IN - OUT =       1.6153E-09              IN - OUT =       1.6371E-10

 PERCENT DISCREPANCY =           0.00     PERCENT DISCREPANCY =           0.00




         TIME SUMMARY AT END OF TIME STEP    1 IN STRESS PERIOD    1
                    SECONDS     MINUTES      HOURS       DAYS        YEARS
                    -----------------------------------------------------------
   TIME STEP LENGTH 8.64000E+05  14400.      240.00      10.000     2.73785E-02
 STRESS PERIOD TIME 8.64000E+05  14400.      240.00      10.000     2.73785E-02
         TOTAL TIME 8.64000E+05  14400.      240.00      10.000     2.73785E-02


end timestep


start timestep kper="1" kstp="2" mode="normal"

 UBDSV06 SAVING  SOURCE-SINK MIX IN MODEL O                PACKAGE O               CONNECTED TO MODEL O                PACKAGE SSM              ON UNIT   1964 AT TIME STEP      2, STRESS PERIOD      1
 UBDSV06 SAVING              CNC IN MODEL O                PACKAGE O               CONNECTED TO MODEL O                PACKAGE CNC              ON UNIT   1964 AT TIME STEP      2, STRESS PERIOD      1

 SSM PACKAGE (SSM) FLOW RATES   PERIOD      1   STEP        2
 ------------------------------------------------------------------------------------------------
   NUMBER   CELLID                   BOUND Q        SSM CONC          RATE         PACKAGE NAME  
 ------------------------------------------------------------------------------------------------
     1      (1,1,1)               2.08333319E-02  55550.815       1157.3086            CHD       
     2      (2,1,1)               2.08333319E-02  55550.815       1157.3086            CHD       
     3      (3,1,1)               2.08333319E-02  55550.815       1157.3086            CHD       
     4      (4,1,1)               0.0000000       0.0000000       0.0000000            CHD       
     5      (5,1,1)               0.0000000       0.0000000       0.0000000            CHD       
     6      (6,1,1)               0.0000000       0.0000000       0.0000000            CHD       
     7      (7,1,1)               0.0000000       0.0000000       0.0000000            CHD       
     8      (8,1,1)               0.0000000       0.0000000       0.0000000            CHD       
     9      (9,1,1)               0.0000000       0.0000000       0.0000000            CHD       
     10     (10,1,1)              0.0000000       0.0000000       0.0000000            CHD       
     11     (1,1,25)             -2.08333370E-02  55390.783      -1153.9749            CHD       
     12     (2,1,25)             -2.08333370E-02  55390.783      -1153.9749            CHD       
     13     (3,1,25)             -2.08333370E-02  55390.783      -1153.9749            CHD       
     14     (4,1,25)             -2.08333370E-02  55390.783      -1153.9749            CHD       
     15     (5,1,25)             -2.08333370E-02  55390.783      -1153.9749            CHD       
     16     (6,1,25)             -2.08333370E-02  55390.783      -1153.9749            CHD       
     17     (7,1,25)             -2.08333370E-02  55390.783      -1153.9749            CHD       
     18     (8,1,25)             -2.08333370E-02  55390.783      -1153.9749            CHD       
     19     (9,1,25)             -2.08333370E-02  55390.783      -1153.9749            CHD       
     20     (10,1,25)            -2.08333370E-02  55390.783      -1153.9749            CHD       
 ------------------------------------------------------------------------------------------------




 CNC PACKAGE (CNC) FLOW RATES   PERIOD      1   STEP        2
 -----------------------------------------------
   NUMBER   CELLID                    RATE      
 -----------------------------------------------
     1      (4,1,1)               1150.1399     
     2      (5,1,1)               1153.9619     
     3      (6,1,1)               1153.9688     
     4      (7,1,1)               1153.9720     
     5      (8,1,1)               1153.9734     
     6      (9,1,1)               1153.9740     
     7      (10,1,1)              1153.9742     
 -----------------------------------------------



1
  CONCENTRATION IN LAYER   1 AT END OF TIME STEP   2 IN STRESS PERIOD    1
  ---------------------------------------------------------------------------

                1               2               3               4               5               6               7               8               9              10
               11              12              13              14              15              16              17              18              19              20
               21              22              23              24              25
 ................................................................................................................................................................
   1  55423.22582     55398.69227     55391.78356     55390.89752     55390.79662     55390.78522     55390.78379     55390.78364     55390.78365     55390.78369    
      55390.78362     55390.78350     55390.78334     55390.78324     55390.78318     55390.78314     55390.78310     55390.78307     55390.78307     55390.78309    
      55390.78315     55390.78323     55390.78331     55390.78342     55390.78347    
1
  CONCENTRATION IN LAYER   2 AT END OF TIME STEP   2 IN STRESS PERIOD    1
  ---------------------------------------------------------------------------

                1               2               3               4               5               6               7               8               9              10
               11              12              13              14              15              16              17              18              19              20
               21              22              23              24              25
 ................................................................................................................................................................
   1  55419.47949     55397.65419     55391.67814     55390.88879     55390.79588     55390.78518     55390.78390     55390.78381     55390.78375     55390.78369    
      55390.78356     55390.78344     55390.78330     55390.78318     55390.78309     55390.78301     55390.78295     55390.78292     55390.78293     55390.78298    
      55390.78305     55390.78315     55390.78326     55390.78341     55390.78347    
1
  CONCENTRATION IN LAYER   3 AT END OF TIME STEP   2 IN STRESS PERIOD    1
  ---------------------------------------------------------------------------

                1               2               3               4               5               6               7               8               9              10
               11              12              13              14              15              16              17              18              19              20
               21              22              23              24              25
 ................................................................................................................................................................
   1  55410.11149     55395.61075     55391.50003     55390.87408     55390.79456     55390.78509     55390.78408     55390.78408     55390.78392     55390.78369    
      55390.78346     55390.78336     55390.78325     55390.78311     55390.78295     55390.78280     55390.78271     55390.78269     55390.78272     55390.78279    
      55390.78289     55390.78303     55390.78318     55390.78339     55390.78347    
1
  CONCENTRATION IN LAYER   4 AT END OF TIME STEP   2 IN STRESS PERIOD    1
  ---------------------------------------------------------------------------

                1               2               3               4               5               6               7               8               9              10
               11              12              13              14              15              16              17              18              19              20
               21              22              23              24              25
 ................................................................................................................................................................
   1  55390.78237     55392.99711     55391.32391     55390.85755     55390.79292     55390.78497     55390.78426     55390.78431     55390.78406     55390.78370    
      55390.78338     55390.78330     55390.78321     55390.78306     55390.78283     55390.78262     55390.78250     55390.78250     55390.78254     55390.78263    
      55390.78275     55390.78291     55390.78310     55390.78336     55390.78346    
1
  CONCENTRATION IN LAYER   5 AT END OF TIME STEP   2 IN STRESS PERIOD    1
  ---------------------------------------------------------------------------

                1               2               3               4               5               6               7               8               9              10
               11              12              13              14              15              16              17              18              19              20
               21              22              23              24              25
 ................................................................................................................................................................
   1  55390.78237     55391.78664     55391.12405     55390.83883     55390.79112     55390.78482     55390.78437     55390.78442     55390.78414     55390.78371    
      55390.78335     55390.78328     55390.78320     55390.78303     55390.78277     55390.78252     55390.78239     55390.78238     55390.78243     55390.78253    
      55390.78266     55390.78284     55390.78304     55390.78333     55390.78346    
1
  CONCENTRATION IN LAYER   6 AT END OF TIME STEP   2 IN STRESS PERIOD    1
  ---------------------------------------------------------------------------

                1               2               3               4               5               6               7               8               9              10
               11              12              13              14              15              16              17              18              19              20
               21              22              23              24              25
 ................................................................................................................................................................
   1  55390.78237     55391.23402     55390.97942     55390.82171     55390.78938     55390.78466     55390.78440     55390.78445     55390.78416     55390.78372    
      55390.78336     55390.78329     55390.78321     55390.78303     55390.78275     55390.78250     55390.78236     55390.78235     55390.78240     55390.78250    
      55390.78263     55390.78281     55390.78301     55390.78332     55390.78346    
1
  CONCENTRATION IN LAYER   7 AT END OF TIME STEP   2 IN STRESS PERIOD    1
  ---------------------------------------------------------------------------

                1               2               3               4               5               6               7               8               9              10
               11              12              13              14              15              16              17              18              19              20
               21              22              23              24              25
 ................................................................................................................................................................
   1  55390.78237     55390.98464     55390.89050     55390.80839     55390.78786     55390.78450     55390.78437     55390.78441     55390.78413     55390.78373    
      55390.78338     55390.78330     55390.78322     55390.78305     55390.78278     55390.78254     55390.78240     55390.78239     55390.78243     55390.78253    
      55390.78265     55390.78283     55390.78302     55390.78332     55390.78346    
1
  CONCENTRATION IN LAYER   8 AT END OF TIME STEP   2 IN STRESS PERIOD    1
  ---------------------------------------------------------------------------

                1               2               3               4               5               6               7               8               9              10
               11              12              13              14              15              16              17              18              19              20
               21              22              23              24              25
 ................................................................................................................................................................
   1  55390.78237     55390.87363     55390.84065     55390.79927     55390.78669     55390.78435     55390.78429     55390.78432     55390.78407     55390.78371    
      55390.78341     55390.78333     55390.78325     55390.78309     55390.78284     55390.78262     55390.78250     55390.78248     55390.78252     55390.78261    
      55390.78272     55390.78288     55390.78305     55390.78332     55390.78346    
1
  CONCENTRATION IN LAYER   9 AT END OF TIME STEP   2 IN STRESS PERIOD    1
  ---------------------------------------------------------------------------

                1               2               3               4               5               6               7               8               9              10
               11              12              13              14              15              16              17              18              19              20
               21              22              23              24              25
 ................................................................................................................................................................
   1  55390.78237     55390.82574     55390.81514     55390.79375     55390.78591     55390.78422     55390.78413     55390.78415     55390.78396     55390.78371    
      55390.78347     55390.78338     55390.78327     55390.78313     55390.78293     55390.78276     55390.78265     55390.78263     55390.78266     55390.78273    
      55390.78283     55390.78296     55390.78311     55390.78334     55390.78346    
1
  CONCENTRATION IN LAYER  10 AT END OF TIME STEP   2 IN STRESS PERIOD    1
  ---------------------------------------------------------------------------

                1               2               3               4               5               6               7               8               9              10
               11              12              13              14              15              16              17              18              19              20
               21              22              23              24              25
 ................................................................................................................................................................
   1  55390.78237     55390.80800     55390.80457     55390.79117     55390.78560     55390.78415     55390.78385     55390.78379     55390.78378     55390.78378    
      55390.78365     55390.78349     55390.78328     55390.78314     55390.78304     55390.78296     55390.78289     55390.78285     55390.78284     55390.78289    
      55390.78297     55390.78308     55390.78320     55390.78337     55390.78346    

 CONCENTRATION WILL BE SAVED ON UNIT 1965 AT END OF TIME STEP    2, STRESS PERIOD    1


  MASS BUDGET FOR ENTIRE MODEL AT END OF TIME STEP    2, STRESS PERIOD   1
  ---------------------------------------------------------------------------------------------------

     CUMULATIVE MASS      M       RATES FOR THIS TIME STEP      M/T          PACKAGE NAME    
     ------------------                 ------------------------                     ----------------

           IN:                                      IN:
           ---                                      ---
     STORAGE-AQUEOUS =           0.1332       STORAGE-AQUEOUS =       5.1231E-03     MST                              
                 CHD =       69438.5208                   CHD =        3471.9257     SSM_CHD                          
                 CNC =      161555.7812                   CNC =        8077.7710     CNC                              

            TOTAL IN =      230994.4352              TOTAL IN =       11549.7018

          OUT:                                     OUT:
          ----                                     ----
     STORAGE-AQUEOUS =         137.8841       STORAGE-AQUEOUS =           6.1464     MST                              
                 CHD =      230794.9891                   CHD =       11539.7486     SSM_CHD                          
                 CNC =          61.5620                   CNC =           3.8069     CNC                              

           TOTAL OUT =      230994.4352             TOTAL OUT =       11549.7018

            IN - OUT =       4.3947E-09              IN - OUT =       2.8012E-10

 PERCENT DISCREPANCY =           0.00     PERCENT DISCREPANCY =           0.00




         TIME SUMMARY AT END OF TIME STEP    2 IN STRESS PERIOD    1
                    SECONDS     MINUTES      HOURS       DAYS        YEARS
                    -----------------------------------------------------------
   TIME STEP LENGTH 8.64000E+05  14400.      240.00      10.000     2.73785E-02
 STRESS PERIOD TIME 1.72800E+06  28800.      480.00      20.000     5.47570E-02
         TOTAL TIME 1.72800E+06  28800.      480.00      20.000     5.47570E-02


end timestep


start timestep kper="1" kstp="3" mode="normal"

 UBDSV06 SAVING  SOURCE-SINK MIX IN MODEL O                PACKAGE O               CONNECTED TO MODEL O                PACKAGE SSM              ON UNIT   1964 AT TIME STEP      3, STRESS PERIOD      1
 UBDSV06 SAVING              CNC IN MODEL O                PACKAGE O               CONNECTED TO MODEL O                PACKAGE CNC              ON UNIT   1964 AT TIME STEP      3, STRESS PERIOD      1

 SSM PACKAGE (SSM) FLOW RATES   PERIOD      1   STEP        3
 ------------------------------------------------------------------------------------------------
   NUMBER   CELLID                   BOUND Q        SSM CONC          RATE         PACKAGE NAME  
 ------------------------------------------------------------------------------------------------
     1      (1,1,1)               2.08333325E-02  55550.815       1157.3086            CHD       
     2      (2,1,1)               2.08333325E-02  55550.815       1157.3086            CHD       
     3      (3,1,1)               2.08333325E-02  55550.815       1157.3086            CHD       
     4      (4,1,1)               0.0000000       0.0000000       0.0000000            CHD       
     5      (5,1,1)               0.0000000       0.0000000       0.0000000            CHD       
     6      (6,1,1)               0.0000000       0.0000000       0.0000000            CHD       
     7      (7,1,1)               0.0000000       0.0000000       0.0000000            CHD       
     8      (8,1,1)               0.0000000       0.0000000       0.0000000            CHD       
     9      (9,1,1)               0.0000000       0.0000000       0.0000000            CHD       
     10     (10,1,1)              0.0000000       0.0000000       0.0000000            CHD       
     11     (1,1,25)             -2.08333362E-02  55390.783      -1153.9748            CHD       
     12     (2,1,25)             -2.08333362E-02  55390.783      -1153.9748            CHD       
     13     (3,1,25)             -2.08333362E-02  55390.783      -1153.9748            CHD       
     14     (4,1,25)             -2.08333362E-02  55390.783      -1153.9748            CHD       
     15     (5,1,25)             -2.08333362E-02  55390.783      -1153.9748            CHD       
     16     (6,1,25)             -2.08333362E-02  55390.783      -1153.9748            CHD       
     17     (7,1,25)             -2.08333362E-02  55390.783      -1153.9748            CHD       
     18     (8,1,25)             -2.08333362E-02  55390.783      -1153.9748            CHD       
     19     (9,1,25)             -2.08333362E-02  55390.783      -1153.9748            CHD       
     20     (10,1,25)            -2.08333362E-02  55390.783      -1153.9748            CHD       
 ------------------------------------------------------------------------------------------------




 CNC PACKAGE (CNC) FLOW RATES   PERIOD      1   STEP        3
 -----------------------------------------------
   NUMBER   CELLID                    RATE      
 -----------------------------------------------
     1      (4,1,1)               1149.2023     
     2      (5,1,1)               1153.9501     
     3      (6,1,1)               1153.9627     
     4      (7,1,1)               1153.9688     
     5      (8,1,1)               1153.9718     
     6      (9,1,1)               1153.9732     
     7      (10,1,1)              1153.9737     
 -----------------------------------------------



1
  CONCENTRATION IN LAYER   1 AT END OF TIME STEP   3 IN STRESS PERIOD    1
  ---------------------------------------------------------------------------

                1               2               3               4               5               6               7               8               9              10
               11              12              13              14              15              16              17              18              19              20
               21              22              23              24              25
 ................................................................................................................................................................
   1  55427.74322     55403.46330     55392.83632     55391.07336     55390.82267     55390.78889     55390.78441     55390.78379     55390.78370     55390.78369    
      55390.78361     55390.78348     55390.78330     55390.78314     55390.78304     55390.78297     55390.78292     55390.78288     55390.78288     55390.78292    
      55390.78300     55390.78310     55390.78322     55390.78338     55390.78346    
1
  CONCENTRATION IN LAYER   2 AT END OF TIME STEP   3 IN STRESS PERIOD    1
  ---------------------------------------------------------------------------

                1               2               3               4               5               6               7               8               9              10
               11              12              13              14              15              16              17              18              19              20
               21              22              23              24              25
 ................................................................................................................................................................
   1  55427.05371     55401.78160     55392.62614     55391.05278     55390.82064     55390.78873     55390.78447     55390.78386     55390.78373     55390.78369    
      55390.78359     55390.78345     55390.78325     55390.78306     55390.78293     55390.78285     55390.78279     55390.78276     55390.78276     55390.78281    
      55390.78290     55390.78303     55390.78318     55390.78336     55390.78346    
1
  CONCENTRATION IN LAYER   3 AT END OF TIME STEP   3 IN STRESS PERIOD    1
  ---------------------------------------------------------------------------

                1               2               3               4               5               6               7               8               9              10
               11              12              13              14              15              16              17              18              19              20
               21              22              23              24              25
 ................................................................................................................................................................
   1  55414.50964     55398.59313     55392.27629     55391.01809     55390.81701     55390.78842     55390.78456     55390.78396     55390.78378     55390.78369    
      55390.78357     55390.78340     55390.78317     55390.78294     55390.78277     55390.78265     55390.78259     55390.78256     55390.78257     55390.78264    
      55390.78275     55390.78292     55390.78310     55390.78333     55390.78345    
1
  CONCENTRATION IN LAYER   4 AT END OF TIME STEP   3 IN STRESS PERIOD    1
  ---------------------------------------------------------------------------

                1               2               3               4               5               6               7               8               9              10
               11              12              13              14              15              16              17              18              19              20
               21              22              23              24              25
 ................................................................................................................................................................
   1  55390.78237     55394.67850     55391.93471     55390.97864     55390.81235     55390.78796     55390.78463     55390.78405     55390.78383     55390.78371    
      55390.78355     55390.78337     55390.78311     55390.78284     55390.78262     55390.78248     55390.78240     55390.78238     55390.78240     55390.78247    
      55390.78261     55390.78281     55390.78302     55390.78330     55390.78345    
1
  CONCENTRATION IN LAYER   5 AT END OF TIME STEP   3 IN STRESS PERIOD    1
  ---------------------------------------------------------------------------

                1               2               3               4               5               6               7               8               9              10
               11              12              13              14              15              16              17              18              19              20
               21              22              23              24              25
 ................................................................................................................................................................
   1  55390.78237     55392.69761     55391.54436     55390.93364     55390.80716     55390.78741     55390.78465     55390.78411     55390.78387     55390.78373    
      55390.78355     55390.78336     55390.78308     55390.78278     55390.78254     55390.78238     55390.78229     55390.78226     55390.78228     55390.78237    
      55390.78252     55390.78273     55390.78297     55390.78328     55390.78344    
1
  CONCENTRATION IN LAYER   6 AT END OF TIME STEP   3 IN STRESS PERIOD    1
  ---------------------------------------------------------------------------

                1               2               3               4               5               6               7               8               9              10
               11              12              13              14              15              16              17              18              19              20
               21              22              23              24              25
 ................................................................................................................................................................
   1  55390.78237     55391.71276     55391.24565     55390.89112     55390.80203     55390.78682     55390.78462     55390.78413     55390.78389     55390.78374    
      55390.78356     55390.78337     55390.78307     55390.78277     55390.78252     55390.78235     55390.78226     55390.78222     55390.78224     55390.78233    
      55390.78248     55390.78270     55390.78294     55390.78326     55390.78344    
1
  CONCENTRATION IN LAYER   7 AT END OF TIME STEP   3 IN STRESS PERIOD    1
  ---------------------------------------------------------------------------

                1               2               3               4               5               6               7               8               9              10
               11              12              13              14              15              16              17              18              19              20
               21              22              23              24              25
 ................................................................................................................................................................
   1  55390.78237     55391.23088     55391.05044     55390.85662     55390.79750     55390.78627     55390.78455     55390.78410     55390.78389     55390.78375    
      55390.78358     55390.78338     55390.78309     55390.78279     55390.78255     55390.78238     55390.78229     55390.78226     55390.78227     55390.78235    
      55390.78250     55390.78271     55390.78294     55390.78326     55390.78344    
1
  CONCENTRATION IN LAYER   8 AT END OF TIME STEP   3 IN STRESS PERIOD    1
  ---------------------------------------------------------------------------

                1               2               3               4               5               6               7               8               9              10
               11              12              13              14              15              16              17              18              19              20
               21              22              23              24              25
 ................................................................................................................................................................
   1  55390.78237     55390.99954     55390.93460     55390.83191     55390.79395     55390.78579     55390.78443     55390.78404     55390.78386     55390.78375    
      55390.78359     55390.78341     55390.78313     55390.78284     55390.78261     55390.78247     55390.78238     55390.78234     55390.78235     55390.78242    
      55390.78256     55390.78276     55390.78297     55390.78327     55390.78344    
1
  CONCENTRATION IN LAYER   9 AT END OF TIME STEP   3 IN STRESS PERIOD    1
  ---------------------------------------------------------------------------

                1               2               3               4               5               6               7               8               9              10
               11              12              13              14              15              16              17              18              19              20
               21              22              23              24              25
 ................................................................................................................................................................
   1  55390.78237     55390.89310     55390.87203     55390.81658     55390.79154     55390.78542     55390.78430     55390.78396     55390.78382     55390.78375    
      55390.78362     55390.78343     55390.78317     55390.78291     55390.78272     55390.78259     55390.78251     55390.78247     55390.78248     55390.78254    
      55390.78266     55390.78283     55390.78302     55390.78328     55390.78344    
1
  CONCENTRATION IN LAYER  10 AT END OF TIME STEP   3 IN STRESS PERIOD    1
  ---------------------------------------------------------------------------

                1               2               3               4               5               6               7               8               9              10
               11              12              13              14              15              16              17              18              19              20
               21              22              23              24              25
 ................................................................................................................................................................
   1  55390.78237     55390.85171     55390.84510     55390.80932     55390.79030     55390.78518     55390.78417     55390.78390     55390.78381     55390.78376    
      55390.78364     55390.78346     55390.78323     55390.78301     55390.78286     55390.78275     55390.78267     55390.78263     55390.78263     55390.78268    
      55390.78278     55390.78292     55390.78308     55390.78330     55390.78344    

 CONCENTRATION WILL BE SAVED ON UNIT 1965 AT END OF TIME STEP    3, STRESS PERIOD    1


  MASS BUDGET FOR ENTIRE MODEL AT END OF TIME STEP    3, STRESS PERIOD   1
  ---------------------------------------------------------------------------------------------------

     CUMULATIVE MASS      M       RATES FOR THIS TIME STEP      M/T          PACKAGE NAME    
     ------------------                 ------------------------                     ----------------

           IN:                                      IN:
           ---                                      ---
     STORAGE-AQUEOUS =           0.1617       STORAGE-AQUEOUS =       2.8540E-03     MST                              
                 CHD =      104157.7787                   CHD =        3471.9258     SSM_CHD                          
                 CNC =      242333.0350                   CNC =        8077.7254     CNC                              

            TOTAL IN =      346490.9754              TOTAL IN =       11549.6540

          OUT:                                     OUT:
          ----                                     ----
     STORAGE-AQUEOUS =         189.7143       STORAGE-AQUEOUS =           5.1830     MST                              
                 CHD =      346192.4706                   CHD =       11539.7481     SSM_CHD                          
                 CNC =         108.7905                   CNC =           4.7229     CNC                              

           TOTAL OUT =      346490.9754             TOTAL OUT =       11549.6540

            IN - OUT =       8.7894E-09              IN - OUT =       4.4020E-10

 PERCENT DISCREPANCY =           0.00     PERCENT DISCREPANCY =           0.00




         TIME SUMMARY AT END OF TIME STEP    3 IN STRESS PERIOD    1
                    SECONDS     MINUTES      HOURS       DAYS        YEARS
                    -----------------------------------------------------------
   TIME STEP LENGTH 8.64000E+05  14400.      240.00      10.000     2.73785E-02
 STRESS PERIOD TIME 2.59200E+06  43200.      720.00      30.000     8.21355E-02
         TOTAL TIME 2.59200E+06  43200.      720.00      30.000     8.21355E-02


end timestep


start timestep kper="1" kstp="4" mode="normal"

 UBDSV06 SAVING  SOURCE-SINK MIX IN MODEL O                PACKAGE O               CONNECTED TO MODEL O                PACKAGE SSM              ON UNIT   1964 AT TIME STEP      4, STRESS PERIOD      1
 UBDSV06 SAVING              CNC IN MODEL O                PACKAGE O               CONNECTED TO MODEL O                PACKAGE CNC              ON UNIT   1964 AT TIME STEP      4, STRESS PERIOD      1

 SSM PACKAGE (SSM) FLOW RATES   PERIOD      1   STEP        4
 ------------------------------------------------------------------------------------------------
   NUMBER   CELLID                   BOUND Q        SSM CONC          RATE         PACKAGE NAME  
 ------------------------------------------------------------------------------------------------
     1      (1,1,1)               2.08333321E-02  55550.815       1157.3086            CHD       
     2      (2,1,1)               2.08333321E-02  55550.815       1157.3086            CHD       
     3      (3,1,1)               2.08333321E-02  55550.815       1157.3086            CHD       
     4      (4,1,1)               0.0000000       0.0000000       0.0000000            CHD       
     5      (5,1,1)               0.0000000       0.0000000       0.0000000            CHD       
     6      (6,1,1)               0.0000000       0.0000000       0.0000000            CHD       
     7      (7,1,1)               0.0000000       0.0000000       0.0000000            CHD       
     8      (8,1,1)               0.0000000       0.0000000       0.0000000            CHD       
     9      (9,1,1)               0.0000000       0.0000000       0.0000000            CHD       
     10     (10,1,1)              0.0000000       0.0000000       0.0000000            CHD       
     11     (1,1,25)             -2.08333356E-02  55390.783      -1153.9748            CHD       
     12     (2,1,25)             -2.08333356E-02  55390.783      -1153.9748            CHD       
     13     (3,1,25)             -2.08333356E-02  55390.783      -1153.9748            CHD       
     14     (4,1,25)             -2.08333356E-02  55390.783      -1153.9748            CHD       
     15     (5,1,25)             -2.08333356E-02  55390.783      -1153.9748            CHD       
     16     (6,1,25)             -2.08333356E-02  55390.783      -1153.9748            CHD       
     17     (7,1,25)             -2.08333356E-02  55390.783      -1153.9748            CHD       
     18     (8,1,25)             -2.08333356E-02  55390.783      -1153.9748            CHD       
     19     (9,1,25)             -2.08333356E-02  55390.783      -1153.9748            CHD       
     20     (10,1,25)            -2.08333356E-02  55390.783      -1153.9748            CHD       
 ------------------------------------------------------------------------------------------------




 CNC PACKAGE (CNC) FLOW RATES   PERIOD      1   STEP        4
 -----------------------------------------------
   NUMBER   CELLID                    RATE      
 -----------------------------------------------
     1      (4,1,1)               1148.6389     
     2      (5,1,1)               1153.9370     
     3      (6,1,1)               1153.9551     
     4      (7,1,1)               1153.9646     
     5      (8,1,1)               1153.9694     
     6      (9,1,1)               1153.9718     
     7      (10,1,1)              1153.9727     
 -----------------------------------------------



1
  CONCENTRATION IN LAYER   1 AT END OF TIME STEP   4 IN STRESS PERIOD    1
  ---------------------------------------------------------------------------

                1               2               3               4               5               6               7               8               9              10
               11              12              13              14              15              16              17              18              19              20
               21              22              23              24              25
 ................................................................................................................................................................
   1  55424.74200     55407.58116     55394.12905     55391.35479     55390.87370     55390.79719     55390.78575     55390.78406     55390.78377     55390.78368    
      55390.78358     55390.78343     55390.78324     55390.78306     55390.78292     55390.78283     55390.78276     55390.78272     55390.78273     55390.78277    
      55390.78286     55390.78299     55390.78314     55390.78332     55390.78344    
1
  CONCENTRATION IN LAYER   2 AT END OF TIME STEP   4 IN STRESS PERIOD    1
  ---------------------------------------------------------------------------

                1               2               3               4               5               6               7               8               9              10
               11              12              13              14              15              16              17              18              19              20
               21              22              23              24              25
 ................................................................................................................................................................
   1  55427.85254     55405.44071     55393.80636     55391.31764     55390.86935     55390.79669     55390.78573     55390.78411     55390.78380     55390.78368    
      55390.78355     55390.78338     55390.78319     55390.78299     55390.78284     55390.78272     55390.78264     55390.78261     55390.78262     55390.78268    
      55390.78278     55390.78293     55390.78310     55390.78331     55390.78343    
1
  CONCENTRATION IN LAYER   3 AT END OF TIME STEP   4 IN STRESS PERIOD    1
  ---------------------------------------------------------------------------

                1               2               3               4               5               6               7               8               9              10
               11              12              13              14              15              16              17              18              19              20
               21              22              23              24              25
 ................................................................................................................................................................
   1  55417.11098     55401.35579     55393.26873     55391.25457     55390.86150     55390.79574     55390.78569     55390.78418     55390.78384     55390.78368    
      55390.78350     55390.78331     55390.78310     55390.78288     55390.78270     55390.78256     55390.78247     55390.78243     55390.78245     55390.78253    
      55390.78265     55390.78283     55390.78303     55390.78328     55390.78343    
1
  CONCENTRATION IN LAYER   4 AT END OF TIME STEP   4 IN STRESS PERIOD    1
  ---------------------------------------------------------------------------

                1               2               3               4               5               6               7               8               9              10
               11              12              13              14              15              16              17              18              19              20
               21              22              23              24              25
 ................................................................................................................................................................
   1  55390.78237     55396.39123     55392.73067     55391.18112     55390.85135     55390.79446     55390.78561     55390.78425     55390.78388     55390.78368    
      55390.78346     55390.78326     55390.78302     55390.78279     55390.78257     55390.78241     55390.78230     55390.78226     55390.78229     55390.78238    
      55390.78253     55390.78273     55390.78296     55390.78325     55390.78342    
1
  CONCENTRATION IN LAYER   5 AT END OF TIME STEP   4 IN STRESS PERIOD    1
  ---------------------------------------------------------------------------

                1               2               3               4               5               6               7               8               9              10
               11              12              13              14              15              16              17              18              19              20
               21              22              23              24              25
 ................................................................................................................................................................
   1  55390.78237     55393.71398     55392.11732     55391.09666     55390.83997     55390.79299     55390.78549     55390.78429     55390.78392     55390.78369    
      55390.78345     55390.78323     55390.78298     55390.78273     55390.78249     55390.78231     55390.78219     55390.78215     55390.78218     55390.78228    
      55390.78244     55390.78266     55390.78290     55390.78322     55390.78341    
1
  CONCENTRATION IN LAYER   6 AT END OF TIME STEP   4 IN STRESS PERIOD    1
  ---------------------------------------------------------------------------

                1               2               3               4               5               6               7               8               9              10
               11              12              13              14              15              16              17              18              19              20
               21              22              23              24              25
 ................................................................................................................................................................
   1  55390.78237     55392.29564     55391.62904     55391.01485     55390.82856     55390.79149     55390.78533     55390.78430     55390.78393     55390.78370    
      55390.78346     55390.78323     55390.78298     55390.78272     55390.78247     55390.78228     55390.78215     55390.78211     55390.78214     55390.78224    
      55390.78240     55390.78262     55390.78288     55390.78321     55390.78341    
1
  CONCENTRATION IN LAYER   7 AT END OF TIME STEP   4 IN STRESS PERIOD    1
  ---------------------------------------------------------------------------

                1               2               3               4               5               6               7               8               9              10
               11              12              13              14              15              16              17              18              19              20
               21              22              23              24              25
 ................................................................................................................................................................
   1  55390.78237     55391.55720     55391.29479     55390.94641     55390.81833     55390.79010     55390.78515     55390.78427     55390.78393     55390.78371    
      55390.78347     55390.78325     55390.78300     55390.78273     55390.78249     55390.78230     55390.78218     55390.78213     55390.78216     55390.78225    
      55390.78241     55390.78263     55390.78288     55390.78320     55390.78341    
1
  CONCENTRATION IN LAYER   8 AT END OF TIME STEP   4 IN STRESS PERIOD    1
  ---------------------------------------------------------------------------

                1               2               3               4               5               6               7               8               9              10
               11              12              13              14              15              16              17              18              19              20
               21              22              23              24              25
 ................................................................................................................................................................
   1  55390.78237     55391.18122     55391.08724     55390.89583     55390.81016     55390.78895     55390.78496     55390.78421     55390.78391     55390.78372    
      55390.78350     55390.78328     55390.78303     55390.78278     55390.78255     55390.78237     55390.78225     55390.78221     55390.78223     55390.78231    
      55390.78246     55390.78267     55390.78290     55390.78321     55390.78341    
1
  CONCENTRATION IN LAYER   9 AT END OF TIME STEP   4 IN STRESS PERIOD    1
  ---------------------------------------------------------------------------

                1               2               3               4               5               6               7               8               9              10
               11              12              13              14              15              16              17              18              19              20
               21              22              23              24              25
 ................................................................................................................................................................
   1  55390.78237     55390.99894     55390.97087     55390.86346     55390.80456     55390.78813     55390.78481     55390.78413     55390.78388     55390.78373    
      55390.78353     55390.78333     55390.78309     55390.78285     55390.78264     55390.78248     55390.78237     55390.78232     55390.78233     55390.78241    
      55390.78254     55390.78273     55390.78294     55390.78322     55390.78341    
1
  CONCENTRATION IN LAYER  10 AT END OF TIME STEP   4 IN STRESS PERIOD    1
  ---------------------------------------------------------------------------

                1               2               3               4               5               6               7               8               9              10
               11              12              13              14              15              16              17              18              19              20
               21              22              23              24              25
 ................................................................................................................................................................
   1  55390.78237     55390.92543     55390.91921     55390.84794     55390.80174     55390.78770     55390.78471     55390.78407     55390.78386     55390.78374    
      55390.78358     55390.78339     55390.78316     55390.78293     55390.78274     55390.78259     55390.78249     55390.78244     55390.78245     55390.78251    
      55390.78263     55390.78280     55390.78299     55390.78324     55390.78341    

 CONCENTRATION WILL BE SAVED ON UNIT 1965 AT END OF TIME STEP    4, STRESS PERIOD    1


  MASS BUDGET FOR ENTIRE MODEL AT END OF TIME STEP    4, STRESS PERIOD   1
  ---------------------------------------------------------------------------------------------------

     CUMULATIVE MASS      M       RATES FOR THIS TIME STEP      M/T          PACKAGE NAME    
     ------------------                 ------------------------                     ----------------

           IN:                                      IN:
           ---                                      ---
     STORAGE-AQUEOUS =           0.1809       STORAGE-AQUEOUS =       1.9212E-03     MST                              
                 CHD =      138877.0360                   CHD =        3471.9257     SSM_CHD                          
                 CNC =      323109.7709                   CNC =        8077.6736     CNC                              

            TOTAL IN =      461986.9878              TOTAL IN =       11549.6012

          OUT:                                     OUT:
          ----                                     ----
     STORAGE-AQUEOUS =         235.6068       STORAGE-AQUEOUS =           4.5893     MST                              
                 CHD =      461589.9487                   CHD =       11539.7478     SSM_CHD                          
                 CNC =         161.4322                   CNC =           5.2642     CNC                              

           TOTAL OUT =      461986.9878             TOTAL OUT =       11549.6012

            IN - OUT =       1.1350E-08              IN - OUT =       2.5648E-10

 PERCENT DISCREPANCY =           0.00     PERCENT DISCREPANCY =           0.00




         TIME SUMMARY AT END OF TIME STEP    4 IN STRESS PERIOD    1
                    SECONDS     MINUTES      HOURS       DAYS        YEARS
                    -----------------------------------------------------------
   TIME STEP LENGTH 8.64000E+05  14400.      240.00      10.000     2.73785E-02
 STRESS PERIOD TIME 3.45600E+06  57600.      960.00      40.000     0.10951    
         TOTAL TIME 3.45600E+06  57600.      960.00      40.000     0.10951    


end timestep


start timestep kper="1" kstp="5" mode="normal"

 UBDSV06 SAVING  SOURCE-SINK MIX IN MODEL O                PACKAGE O               CONNECTED TO MODEL O                PACKAGE SSM              ON UNIT   1964 AT TIME STEP      5, STRESS PERIOD      1
 UBDSV06 SAVING              CNC IN MODEL O                PACKAGE O               CONNECTED TO MODEL O                PACKAGE CNC              ON UNIT   1964 AT TIME STEP      5, STRESS PERIOD      1

 SSM PACKAGE (SSM) FLOW RATES   PERIOD      1   STEP        5
 ------------------------------------------------------------------------------------------------
   NUMBER   CELLID                   BOUND Q        SSM CONC          RATE         PACKAGE NAME  
 ------------------------------------------------------------------------------------------------
     1      (1,1,1)               2.08333321E-02  55550.815       1157.3086            CHD       
     2      (2,1,1)               2.08333321E-02  55550.815       1157.3086            CHD       
     3      (3,1,1)               2.08333321E-02  55550.815       1157.3086            CHD       
     4      (4,1,1)               0.0000000       0.0000000       0.0000000            CHD       
     5      (5,1,1)               0.0000000       0.0000000       0.0000000            CHD       
     6      (6,1,1)               0.0000000       0.0000000       0.0000000            CHD       
     7      (7,1,1)               0.0000000       0.0000000       0.0000000            CHD       
     8      (8,1,1)               0.0000000       0.0000000       0.0000000            CHD       
     9      (9,1,1)               0.0000000       0.0000000       0.0000000            CHD       
     10     (10,1,1)              0.0000000       0.0000000       0.0000000            CHD       
     11     (1,1,25)             -2.08333353E-02  55390.783      -1153.9748            CHD       
     12     (2,1,25)             -2.08333353E-02  55390.783      -1153.9748            CHD       
[...]
               21              22              23              24              25
 ................................................................................................................................................................
   1  55390.78237     55393.65564     55397.86150     55401.15085     55403.28597     55404.56538     55405.31945     55405.74908     55405.98711     55406.12006    
      55406.20178     55406.26146     55406.31119     55406.35020     55406.37073     55406.36462     55406.34209     55406.28410     55406.17807     55406.00926    
      55405.76405     55405.43663     55405.02129     55404.52434     55403.99479    

 CONCENTRATION WILL BE SAVED ON UNIT 1965 AT END OF TIME STEP  199, STRESS PERIOD    1


  MASS BUDGET FOR ENTIRE MODEL AT END OF TIME STEP  199, STRESS PERIOD   1
  ---------------------------------------------------------------------------------------------------

     CUMULATIVE MASS      M       RATES FOR THIS TIME STEP      M/T          PACKAGE NAME    
     ------------------                 ------------------------                     ----------------

           IN:                                      IN:
           ---                                      ---
     STORAGE-AQUEOUS =        1965.4705       STORAGE-AQUEOUS =           1.1378     MST                              
                 CHD =     6909132.4192                   CHD =        3471.9259     SSM_CHD                          
                 CNC =    16073659.2071                   CNC =        8077.2326     CNC                              

            TOTAL IN =    22984757.0968              TOTAL IN =       11550.2963

          OUT:                                     OUT:
          ----                                     ----
     STORAGE-AQUEOUS =        6820.0561       STORAGE-AQUEOUS =           1.5279     MST                              
                 CHD =    22965415.5623                   CHD =       11542.4991     SSM_CHD                          
                 CNC =       12521.4783                   CNC =           6.2693     CNC                              

           TOTAL OUT =    22984757.0968             TOTAL OUT =       11550.2963

            IN - OUT =       1.2182E-06              IN - OUT =      -1.3351E-09

 PERCENT DISCREPANCY =           0.00     PERCENT DISCREPANCY =          -0.00




         TIME SUMMARY AT END OF TIME STEP  199 IN STRESS PERIOD    1
                    SECONDS     MINUTES      HOURS       DAYS        YEARS
                    -----------------------------------------------------------
   TIME STEP LENGTH 8.64000E+05  14400.      240.00      10.000     2.73785E-02
 STRESS PERIOD TIME 1.71936E+08 2.86560E+06  47760.      1990.0      5.4483    
         TOTAL TIME 1.71936E+08 2.86560E+06  47760.      1990.0      5.4483    


end timestep


start timestep kper="1" kstp="200" mode="normal"

 UBDSV06 SAVING  SOURCE-SINK MIX IN MODEL O                PACKAGE O               CONNECTED TO MODEL O                PACKAGE SSM              ON UNIT   1964 AT TIME STEP    200, STRESS PERIOD      1
 UBDSV06 SAVING              CNC IN MODEL O                PACKAGE O               CONNECTED TO MODEL O                PACKAGE CNC              ON UNIT   1964 AT TIME STEP    200, STRESS PERIOD      1

 SSM PACKAGE (SSM) FLOW RATES   PERIOD      1   STEP      200
 ------------------------------------------------------------------------------------------------
   NUMBER   CELLID                   BOUND Q        SSM CONC          RATE         PACKAGE NAME  
 ------------------------------------------------------------------------------------------------
     1      (1,1,1)               2.08333330E-02  55550.815       1157.3086            CHD       
     2      (2,1,1)               2.08333330E-02  55550.815       1157.3086            CHD       
     3      (3,1,1)               2.08333330E-02  55550.815       1157.3086            CHD       
     4      (4,1,1)               0.0000000       0.0000000       0.0000000            CHD       
     5      (5,1,1)               0.0000000       0.0000000       0.0000000            CHD       
     6      (6,1,1)               0.0000000       0.0000000       0.0000000            CHD       
     7      (7,1,1)               0.0000000       0.0000000       0.0000000            CHD       
     8      (8,1,1)               0.0000000       0.0000000       0.0000000            CHD       
     9      (9,1,1)               0.0000000       0.0000000       0.0000000            CHD       
     10     (10,1,1)              0.0000000       0.0000000       0.0000000            CHD       
     11     (1,1,25)             -2.08333337E-02  55404.082      -1154.2517            CHD       
     12     (2,1,25)             -2.08333337E-02  55404.082      -1154.2517            CHD       
     13     (3,1,25)             -2.08333337E-02  55404.082      -1154.2517            CHD       
     14     (4,1,25)             -2.08333337E-02  55404.082      -1154.2517            CHD       
     15     (5,1,25)             -2.08333337E-02  55404.082      -1154.2517            CHD       
     16     (6,1,25)             -2.08333337E-02  55404.082      -1154.2517            CHD       
     17     (7,1,25)             -2.08333337E-02  55404.082      -1154.2517            CHD       
     18     (8,1,25)             -2.08333337E-02  55404.082      -1154.2517            CHD       
     19     (9,1,25)             -2.08333337E-02  55404.082      -1154.2517            CHD       
     20     (10,1,25)            -2.08333337E-02  55404.082      -1154.2517            CHD       
 ------------------------------------------------------------------------------------------------




 CNC PACKAGE (CNC) FLOW RATES   PERIOD      1   STEP      200
 -----------------------------------------------
   NUMBER   CELLID                    RATE      
 -----------------------------------------------
     1      (4,1,1)               1147.5156     
     2      (5,1,1)               1153.8518     
     3      (6,1,1)               1153.8910     
     4      (7,1,1)               1153.9096     
     5      (8,1,1)               1153.9239     
     6      (9,1,1)               1153.9333     
     7      (10,1,1)              1153.9377     
 -----------------------------------------------



1
  CONCENTRATION IN LAYER   1 AT END OF TIME STEP 200 IN STRESS PERIOD    1
  ---------------------------------------------------------------------------

                1               2               3               4               5               6               7               8               9              10
               11              12              13              14              15              16              17              18              19              20
               21              22              23              24              25
 ................................................................................................................................................................
   1  55447.03397     55424.20400     55410.99283     55407.16632     55408.15378     55407.41489     55406.77032     55406.46893     55406.34374     55406.29268    
      55406.29554     55406.30506     55406.32756     55406.35501     55406.37259     55406.36690     55406.34595     55406.29197     55406.19153     55406.03204    
      55405.79727     55405.48182     55405.07998     55404.59759     55404.08235    
1
  CONCENTRATION IN LAYER   2 AT END OF TIME STEP 200 IN STRESS PERIOD    1
  ---------------------------------------------------------------------------

                1               2               3               4               5               6               7               8               9              10
               11              12              13              14              15              16              17              18              19              20
               21              22              23              24              25
 ................................................................................................................................................................
   1  55438.17333     55420.14559     55409.76155     55406.94757     55407.84867     55407.22972     55406.68676     55406.43202     55406.32611     55406.28471    
      55406.28987     55406.30257     55406.32651     55406.35452     55406.37237     55406.36671     55406.34584     55406.29190     55406.19149     55406.03202    
      55405.79726     55405.48182     55405.07998     55404.59758     55404.08235    
1
  CONCENTRATION IN LAYER   3 AT END OF TIME STEP 200 IN STRESS PERIOD    1
  ---------------------------------------------------------------------------

                1               2               3               4               5               6               7               8               9              10
               11              12              13              14              15              16              17              18              19              20
               21              22              23              24              25
 ................................................................................................................................................................
   1  55420.15268     55412.92969     55407.58328     55408.74384     55407.31928     55406.88455     55406.53341     55406.36186     55406.29181     55406.26929    
      55406.27944     55406.29782     55406.32446     55406.35358     55406.37195     55406.36636     55406.34562     55406.29179     55406.19143     55406.03200    
      55405.79725     55405.48181     55405.07997     55404.59758     55404.08235    
1
  CONCENTRATION IN LAYER   4 AT END OF TIME STEP 200 IN STRESS PERIOD    1
  ---------------------------------------------------------------------------

                1               2               3               4               5               6               7               8               9              10
               11              12              13              14              15              16              17              18              19              20
               21              22              23              24              25
 ................................................................................................................................................................
   1  55390.78237     55404.71995     55404.98658     55407.34329     55406.64052     55406.47437     55406.33430     55406.26597     55406.24462     55406.24735    
      55406.26582     55406.29142     55406.32161     55406.35228     55406.37137     55406.36587     55406.34532     55406.29163     55406.19135     55406.03197    
      55405.79724     55405.48180     55405.07997     55404.59758     55404.08235    
1
  CONCENTRATION IN LAYER   5 AT END OF TIME STEP 200 IN STRESS PERIOD    1
  ---------------------------------------------------------------------------

                1               2               3               4               5               6               7               8               9              10
               11              12              13              14              15              16              17              18              19              20
               21              22              23              24              25
 ................................................................................................................................................................
   1  55390.78237     55399.40679     55402.66029     55405.95168     55405.90221     55406.03501     55406.10888     55406.15457     55406.18951     55406.21973    
      55406.25122     55406.28410     55406.31823     55406.35072     55406.37069     55406.36530     55406.34497     55406.29145     55406.19125     55406.03194    
      55405.79722     55405.48179     55405.07996     55404.59758     55404.08235    
1
  CONCENTRATION IN LAYER   6 AT END OF TIME STEP 200 IN STRESS PERIOD    1
  ---------------------------------------------------------------------------

                1               2               3               4               5               6               7               8               9              10
               11              12              13              14              15              16              17              18              19              20
               21              22              23              24              25
 ................................................................................................................................................................
   1  55390.78237     55396.39918     55400.80398     55404.52748     55405.16066     55405.60678     55405.88073     55406.03860     55406.13156     55406.19070    
      55406.23614     55406.27652     55406.31468     55406.34908     55406.36997     55406.36470     55406.34461     55406.29127     55406.19116     55406.03191    
      55405.79721     55405.48179     55405.07996     55404.59757     55404.08235    
1
  CONCENTRATION IN LAYER   7 AT END OF TIME STEP 200 IN STRESS PERIOD    1
  ---------------------------------------------------------------------------

                1               2               3               4               5               6               7               8               9              10
               11              12              13              14              15              16              17              18              19              20
               21              22              23              24              25
 ................................................................................................................................................................
   1  55390.78237     55396.44131     55401.19587     55403.25180     55404.47374     55405.21978     55405.67038     55405.92963     55406.07651     55406.16309    
      55406.22187     55406.26931     55406.31137     55406.34751     55406.36929     55406.36414     55406.34428     55406.29111     55406.19108     55406.03188    
      55405.79721     55405.48179     55405.07996     55404.59757     55404.08234    
1
  CONCENTRATION IN LAYER   8 AT END OF TIME STEP 200 IN STRESS PERIOD    1
  ---------------------------------------------------------------------------

                1               2               3               4               5               6               7               8               9              10
               11              12              13              14              15              16              17              18              19              20
               21              22              23              24              25
 ................................................................................................................................................................
   1  55390.78237     55394.94394     55399.36130     55402.23280     55403.90439     55404.90093     55405.49555     55405.83784     55406.02976     55406.13960    
      55406.20981     55406.26310     55406.30866     55406.34619     55406.36871     55406.36366     55406.34400     55406.29097     55406.19102     55406.03187    
      55405.79720     55405.48179     55405.07996     55404.59757     55404.08234    
1
  CONCENTRATION IN LAYER   9 AT END OF TIME STEP 200 IN STRESS PERIOD    1
  ---------------------------------------------------------------------------

                1               2               3               4               5               6               7               8               9              10
               11              12              13              14              15              16              17              18              19              20
               21              22              23              24              25
 ................................................................................................................................................................
   1  55390.78237     55394.05102     55398.36605     55401.52477     55403.49732     55404.67334     55405.37067     55405.77159     55405.99586     55406.12254    
      55406.20108     55406.25855     55406.30672     55406.34524     55406.36828     55406.36331     55406.34380     55406.29087     55406.19097     55406.03186    
      55405.79720     55405.48179     55405.07996     55404.59757     55404.08234    
1
  CONCENTRATION IN LAYER  10 AT END OF TIME STEP 200 IN STRESS PERIOD    1
  ---------------------------------------------------------------------------

                1               2               3               4               5               6               7               8               9              10
               11              12              13              14              15              16              17              18              19              20
               21              22              23              24              25
 ................................................................................................................................................................
   1  55390.78237     55393.66609     55397.87085     55401.16210     55403.28550     55404.55480     55405.30562     55405.73693     55405.97807     55406.11358    
      55406.19650     55406.25615     55406.30572     55406.34475     55406.36807     55406.36314     55406.34370     55406.29083     55406.19096     55406.03185    
      55405.79721     55405.48179     55405.07996     55404.59757     55404.08234    

 CONCENTRATION WILL BE SAVED ON UNIT 1965 AT END OF TIME STEP  200, STRESS PERIOD    1


  MASS BUDGET FOR ENTIRE MODEL AT END OF TIME STEP  200, STRESS PERIOD   1
  ---------------------------------------------------------------------------------------------------

     CUMULATIVE MASS      M       RATES FOR THIS TIME STEP      M/T          PACKAGE NAME    
     ------------------                 ------------------------                     ----------------

           IN:                                      IN:
           ---                                      ---
     STORAGE-AQUEOUS =        1976.9008       STORAGE-AQUEOUS =           1.1430     MST                              
                 CHD =     6943851.6779                   CHD =        3471.9259     SSM_CHD                          
                 CNC =    16154431.5292                   CNC =        8077.2322     CNC                              

            TOTAL IN =    23100260.1079              TOTAL IN =       11550.3011

          OUT:                                     OUT:
          ----                                     ----
     STORAGE-AQUEOUS =        6835.1999       STORAGE-AQUEOUS =           1.5144     MST                              
                 CHD =    23080840.7356                   CHD =       11542.5173     SSM_CHD                          
                 CNC =       12584.1724                   CNC =           6.2694     CNC                              

           TOTAL OUT =    23100260.1079             TOTAL OUT =       11550.3011

            IN - OUT =       1.2070E-06              IN - OUT =      -1.3042E-09

 PERCENT DISCREPANCY =           0.00     PERCENT DISCREPANCY =          -0.00




         TIME SUMMARY AT END OF TIME STEP  200 IN STRESS PERIOD    1
                    SECONDS     MINUTES      HOURS       DAYS        YEARS
                    -----------------------------------------------------------
   TIME STEP LENGTH 8.64000E+05  14400.      240.00      10.000     2.73785E-02
 STRESS PERIOD TIME 1.72800E+08 2.88000E+06  48000.      2000.0      5.4757    
         TOTAL TIME 1.72800E+08 2.88000E+06  48000.      2000.0      5.4757    


end timestep

