                                   MODFLOW 6
                U.S. GEOLOGICAL SURVEY MODULAR HYDROLOGIC MODEL
                       GROUNDWATER TRANSPORT MODEL (GWT)
                VERSION 6.5.0.dev0+prt (preliminary) 10/07/2023
                               ***DEVELOP MODE***

   MODFLOW 6 compiled Oct 07 2023 02:19:02 with Intel(R) Fortran Intel(R) 64
   Compiler Classic for applications running on Intel(R) 64, Version 2021.7.0
                             Build 20220726_000000

This software is preliminary or provisional and is subject to 
revision. It is being provided to meet the need for timely best 
science. The software has not received final approval by the U.S. 
Geological Survey (USGS). No warranty, expressed or implied, is made 
by the USGS or the U.S. Government as to the functionality of the 
software and related material nor shall the fact of release 
constitute any such warranty. The software is provided on the 
condition that neither the USGS nor the U.S. Government shall be held 
liable for any damages resulting from the authorized or unauthorized 
use of the software.


As a work of the United States Government, this USGS product is 
in the public domain within the United States. You can copy, 
modify, distribute, and perform the work, even for commercial 
purposes, all without asking permission. Additionally, USGS 
waives copyright and related rights in the work worldwide 
through CC0 1.0 Universal Public Domain Dedication 
(https://creativecommons.org/publicdomain/zero/1.0/).

The following GNU Lesser General Public License (LGPL) libraries
are used in this USGS product:

    SPARSKIT version 2.0
      ilut, luson, and qsplit 
      (https://www-users.cse.umn.edu/~saad/software/SPARSKIT/)

    RCM - Reverse Cuthill McKee Ordering
      (https://people.math.sc.edu/Burkardt/f_src/rcm/rcm.html)

    BLAS - Basic Linear Algebra Subprograms Level 1
      (https://people.math.sc.edu/Burkardt/f_src/blas1_d/blas1_d.html)

    SPARSEKIT - Sparse Matrix Utility Package
      amux, dperm, dvperm, rperm, and cperm
      (https://people.sc.fsu.edu/~jburkardt/f77_src/sparsekit/sparsekit.html)

The following BSD-3 License libraries are used in this USGS product:

    Modern Fortran DAG Library
      Copyright (c) 2018, Jacob Williams
      All rights reserved.
      (https://github.com/jacobwilliams/daglib)

MODFLOW 6 compiler options: /Isrc\libmf6core.a.p /Isrc /I..\src
/Isrc\libmf6_external.a.p /MTd /nologo /warn:general /warn:truncated_source
/stand:f08 /Zi /traceback /O2 /fpe:0 /heap-arrays:0 /traceback /fpp
/Qdiag-disable:7416 /Qdiag-disable:7025 /Qdiag-disable:5268
/Fdsrc\libmf6core.a.p\Utilities_compilerversion.F90.pdb
/module:src\libmf6core.a.p
/Fosrc/libmf6core.a.p/Utilities_compilerversion.F90.obj /c

System command used to initiate simulation:
c:\Users\portega\anaconda3\envs\mf6rtm\python.exe -m ipykernel_launcher --f=c:\Users\portega\AppData\Roaming\jupyter\runtime\kernel-v2-51408na7dKTn0i5X.json

MODFLOW was compiled using uniform precision.

Real Variables
  KIND: 8
  TINY (smallest non-zero value):    2.225074-308
  HUGE (largest value):    1.797693+308
  PRECISION: 15
  SIZE IN BITS: 64

Integer Variables
  KIND: 4
  HUGE (largest value): 2147483647
  SIZE IN BITS: 32

Long Integer Variables
  KIND: 8
  HUGE (largest value): 9223372036854775807
  SIZE IN BITS: 64

Logical Variables
  KIND: 4
  SIZE IN BITS: 32
 
 NAMEFILE OPTIONS:
 END NAMEFILE OPTIONS:

 DIS -- STRUCTURED GRID DISCRETIZATION PACKAGE, VERSION 2 : 3/27/2014 - INPUT READ FROM MEMPATH: __INPUT__/O/DIS                                   


 DSP-- DISPERSION PACKAGE, VERSION 1, 1/24/2018 INPUT READ FROM MEMPATH: __INPUT__/O/DSP                                   


 Setting Discretization Options
    Model length unit [0=UND, 1=FEET, 2=METERS, 3=CENTIMETERS] set as 2
 End Setting Discretization Options

 Setting Discretization Dimensions
    NLAY = 10
    NROW = 1
    NCOL = 25
 End Setting Discretization Dimensions

 Setting Discretization Griddata
    DELR set from input file
    DELC set from input file
    TOP set from input file
    BOTM set from input file
    IDOMAIN set from input file
 End Setting Discretization Griddata


 FMI -- FLOW MODEL INTERFACE,' VERSION 2, 8/17/2023
  FLOWS PROVIDED BY A GWF MODEL IN THIS SIMULATION

 ADV-- ADVECTION PACKAGE, VERSION 1, 8/25/2017 INPUT READ FROM UNIT 12625


 # File generated by Flopy version 3.5.0.dev0 on 07/04/2024 at 16:27:57.
 PROCESSING ADVECTION OPTIONS
    ADVECTION WEIGHTING SCHEME HAS BEEN SET TO: TVD
 END OF ADVECTION OPTIONS
 Setting DSP Options
    XT3D formulation [0=INACTIVE, 1=ACTIVE, 3=ACTIVE RHS] set to: 0
 End Setting DSP Options

 Setting DSP Griddata
    ALH set from input file
    ATH1 set from input file
    ATV set from input file
 End Setting DSP Griddata


 CNC   -- CNC PACKAGE, VERSION 8, 2/22/2014 INPUT READ FROM UNIT 12659
 # File generated by Flopy version 3.5.0.dev0 on 07/04/2024 at 16:27:57.

 PROCESSING CNC OPTIONS
    CNC FLOWS WILL BE PRINTED TO LISTING FILE.
    FLOWS WILL BE SAVED TO BUDGET FILE SPECIFIED IN OUTPUT CONTROL
 END OF CNC OPTIONS

 PROCESSING CNC DIMENSIONS
    MAXBOUND =       7
 END OF CNC DIMENSIONS

 IC -- INITIAL CONDITIONS PACKAGE, VERSION 8, 3/28/2015 INPUT READ FROM UNIT 12623
 # File generated by Flopy version 3.5.0.dev0 on 07/04/2024 at 16:27:57.
 PROCESSING GRIDDATA

 OPENED O.ic_strt_layer1.txt
 FILE TYPE:OPEN/CLOSE   UNIT ****   STATUS:OLD                 
 FORMAT:FORMATTED              ACCESS:SEQUENTIAL          
 ACTION:READ                


 OPENED O.ic_strt_layer2.txt
 FILE TYPE:OPEN/CLOSE   UNIT ****   STATUS:OLD                 
 FORMAT:FORMATTED              ACCESS:SEQUENTIAL          
 ACTION:READ                


 OPENED O.ic_strt_layer3.txt
 FILE TYPE:OPEN/CLOSE   UNIT ****   STATUS:OLD                 
 FORMAT:FORMATTED              ACCESS:SEQUENTIAL          
 ACTION:READ                


 OPENED O.ic_strt_layer4.txt
 FILE TYPE:OPEN/CLOSE   UNIT ****   STATUS:OLD                 
 FORMAT:FORMATTED              ACCESS:SEQUENTIAL          
 ACTION:READ                


 OPENED O.ic_strt_layer5.txt
 FILE TYPE:OPEN/CLOSE   UNIT ****   STATUS:OLD                 
 FORMAT:FORMATTED              ACCESS:SEQUENTIAL          
 ACTION:READ                


 OPENED O.ic_strt_layer6.txt
 FILE TYPE:OPEN/CLOSE   UNIT ****   STATUS:OLD                 
 FORMAT:FORMATTED              ACCESS:SEQUENTIAL          
 ACTION:READ                


 OPENED O.ic_strt_layer7.txt
 FILE TYPE:OPEN/CLOSE   UNIT ****   STATUS:OLD                 
 FORMAT:FORMATTED              ACCESS:SEQUENTIAL          
 ACTION:READ                


 OPENED O.ic_strt_layer8.txt
 FILE TYPE:OPEN/CLOSE   UNIT ****   STATUS:OLD                 
 FORMAT:FORMATTED              ACCESS:SEQUENTIAL          
 ACTION:READ                


 OPENED O.ic_strt_layer9.txt
 FILE TYPE:OPEN/CLOSE   UNIT ****   STATUS:OLD                 
 FORMAT:FORMATTED              ACCESS:SEQUENTIAL          
 ACTION:READ                


 OPENED O.ic_strt_layer10.txt
 FILE TYPE:OPEN/CLOSE   UNIT ****   STATUS:OLD                 
 FORMAT:FORMATTED              ACCESS:SEQUENTIAL          
 ACTION:READ                

 END PROCESSING GRIDDATA

 MST -- MOBILE STORAGE AND TRANSFER PACKAGE, VERSION 1, 7/29/2020 INPUT READ FROM UNIT 12624


 # File generated by Flopy version 3.5.0.dev0 on 07/04/2024 at 16:27:57.
 PROCESSING MOBILE STORAGE AND TRANSFER OPTIONS
 END OF MOBILE STORAGE AND TRANSFER OPTIONS
 PROCESSING GRIDDATA

 OPENED O.mst_porosity.txt
 FILE TYPE:OPEN/CLOSE   UNIT ****   STATUS:OLD                 
 FORMAT:FORMATTED              ACCESS:SEQUENTIAL          
 ACTION:READ                

 END PROCESSING GRIDDATA

 SSM -- SOURCE-SINK MIXING PACKAGE, VERSION 1, 8/25/2017 INPUT READ FROM UNIT 12657


 # File generated by Flopy version 3.5.0.dev0 on 07/04/2024 at 16:27:57.
 PROCESSING SSM OPTIONS
    SSM FLOW INFORMATION WILL BE PRINTED TO LISTING FILE WHENEVER ICBCFL IS NOT ZERO.
    CELL-BY-CELL FLOW INFORMATION WILL BE SAVED TO BINARY FILE WHENEVER ICBCFL IS NOT ZERO.
 END OF SSM OPTIONS

 OPENED O.ssm_sources.txt
 FILE TYPE:OPEN/CLOSE   UNIT ****   STATUS:OLD                 
 FORMAT:FORMATTED              ACCESS:SEQUENTIAL          
 ACTION:READ                

 PROCESSING SOURCES
 AUX SOURCE DETECTED.
    USING AUX COLUMN 2 IN PACKAGE CHDTAIL
 END PROCESSING SOURCES
 OPTIONAL FILEINPUT BLOCK NOT FOUND.  CONTINUING.
      THE LAST TIME STEP WILL BE PRINTED
      THE LAST TIME STEP WILL BE PRINTED
 # File generated by Flopy version 3.5.0.dev0 on 07/04/2024 at 16:27:57.

 PROCESSING OC OPTIONS

    BUDGET INFORMATION WILL BE WRITTEN TO:
      UNIT NUMBER: 13466
      FILE NAME: O.cbb

 OPENED O.cbb
 FILE TYPE:DATA(BINARY)   UNIT ****   STATUS:REPLACE             
 FORMAT:UNFORMATTED            ACCESS:STREAM              
 ACTION:READWRITE           

    CONCENTRATION INFORMATION WILL BE WRITTEN TO:
      UNIT NUMBER: 13467
      FILE NAME: O.ucn

 OPENED O.ucn
 FILE TYPE:DATA(BINARY)   UNIT ****   STATUS:REPLACE             
 FORMAT:UNFORMATTED            ACCESS:STREAM              
 ACTION:READWRITE           

 END OF OC OPTIONS

start timestep kper="1" kstp="1" mode="normal"


 BEGIN READING OUTPUT CONTROL FOR STRESS PERIOD 1
      ALL TIME STEPS WILL BE SAVED
      ALL TIME STEPS WILL BE PRINTED

 END READING OUTPUT CONTROL FOR STRESS PERIOD 1

 OPENED O.cnc_stress_period_data_1.txt
 FILE TYPE:OPEN/CLOSE   UNIT ****   STATUS:OLD                 
 FORMAT:FORMATTED              ACCESS:SEQUENTIAL          
 ACTION:READ                

1
  CONCENTRATION IN LAYER   1 AT END OF TIME STEP   1 IN STRESS PERIOD    1
  ---------------------------------------------------------------------------

                1               2               3               4               5               6               7               8               9              10
               11              12              13              14              15              16              17              18              19              20
               21              22              23              24              25
 ................................................................................................................................................................
   1  55423.76179     55399.67864     55391.94201     55390.89571     55390.78505     55390.77357     55390.77192     55390.77157     55390.77173     55390.77208    
      55390.77217     55390.77197     55390.77162     55390.77142     55390.77144     55390.77150     55390.77148     55390.77142     55390.77137     55390.77138    
      55390.77143     55390.77151     55390.77159     55390.77170     55390.77174    
1
  CONCENTRATION IN LAYER   2 AT END OF TIME STEP   1 IN STRESS PERIOD    1
  ---------------------------------------------------------------------------

                1               2               3               4               5               6               7               8               9              10
               11              12              13              14              15              16              17              18              19              20
               21              22              23              24              25
 ................................................................................................................................................................
   1  55421.21022     55398.65411     55391.80620     55390.88518     55390.78479     55390.77389     55390.77189     55390.77138     55390.77174     55390.77241    
      55390.77250     55390.77206     55390.77142     55390.77111     55390.77118     55390.77129     55390.77126     55390.77114     55390.77106     55390.77109    
      55390.77120     55390.77135     55390.77149     55390.77167     55390.77174    
1
  CONCENTRATION IN LAYER   3 AT END OF TIME STEP   1 IN STRESS PERIOD    1
  ---------------------------------------------------------------------------

                1               2               3               4               5               6               7               8               9              10
               11              12              13              14              15              16              17              18              19              20
               21              22              23              24              25
 ................................................................................................................................................................
   1  55413.23042     55396.31672     55391.56720     55390.86830     55390.78431     55390.77434     55390.77179     55390.77105     55390.77176     55390.77294    
      55390.77304     55390.77222     55390.77110     55390.77063     55390.77078     55390.77098     55390.77092     55390.77071     55390.77057     55390.77064    
      55390.77084     55390.77110     55390.77134     55390.77163     55390.77174    
1
  CONCENTRATION IN LAYER   4 AT END OF TIME STEP   1 IN STRESS PERIOD    1
  ---------------------------------------------------------------------------

                1               2               3               4               5               6               7               8               9              10
               11              12              13              14              15              16              17              18              19              20
               21              22              23              24              25
 ................................................................................................................................................................
   1  55390.77175     55392.72135     55391.33042     55390.85169     55390.78342     55390.77460     55390.77164     55390.77073     55390.77177     55390.77343    
      55390.77353     55390.77237     55390.77083     55390.77024     55390.77048     55390.77077     55390.77068     55390.77038     55390.77018     55390.77027    
      55390.77054     55390.77089     55390.77119     55390.77158     55390.77173    
1
  CONCENTRATION IN LAYER   5 AT END OF TIME STEP   1 IN STRESS PERIOD    1
  ---------------------------------------------------------------------------

                1               2               3               4               5               6               7               8               9              10
               11              12              13              14              15              16              17              18              19              20
               21              22              23              24              25
 ................................................................................................................................................................
   1  55390.77175     55391.45978     55391.06884     55390.82925     55390.78190     55390.77459     55390.77151     55390.77053     55390.77178     55390.77372    
      55390.77383     55390.77247     55390.77070     55390.77004     55390.77035     55390.77071     55390.77058     55390.77022     55390.76997     55390.77007    
      55390.77037     55390.77076     55390.77110     55390.77154     55390.77173    
1
  CONCENTRATION IN LAYER   6 AT END OF TIME STEP   1 IN STRESS PERIOD    1
  ---------------------------------------------------------------------------

                1               2               3               4               5               6               7               8               9              10
               11              12              13              14              15              16              17              18              19              20
               21              22              23              24              25
 ................................................................................................................................................................
   1  55390.77175     55391.01551     55390.91206     55390.80848     55390.78003     55390.77438     55390.77143     55390.77047     55390.77178     55390.77381    
      55390.77393     55390.77252     55390.77068     55390.77001     55390.77034     55390.77072     55390.77059     55390.77021     55390.76993     55390.77003    
      55390.77033     55390.77073     55390.77106     55390.77151     55390.77172    
1
  CONCENTRATION IN LAYER   7 AT END OF TIME STEP   1 IN STRESS PERIOD    1
  ---------------------------------------------------------------------------

                1               2               3               4               5               6               7               8               9              10
               11              12              13              14              15              16              17              18              19              20
               21              22              23              24              25
 ................................................................................................................................................................
   1  55390.77175     55390.85851     55390.83386     55390.79340     55390.77819     55390.77409     55390.77141     55390.77052     55390.77179     55390.77374    
      55390.77386     55390.77251     55390.77074     55390.77009     55390.77041     55390.77078     55390.77065     55390.77028     55390.77001     55390.77009    
      55390.77037     55390.77076     55390.77108     55390.77151     55390.77172    
1
  CONCENTRATION IN LAYER   8 AT END OF TIME STEP   1 IN STRESS PERIOD    1
  ---------------------------------------------------------------------------

                1               2               3               4               5               6               7               8               9              10
               11              12              13              14              15              16              17              18              19              20
               21              22              23              24              25
 ................................................................................................................................................................
   1  55390.77175     55390.80291     55390.79836     55390.78400     55390.77662     55390.77374     55390.77144     55390.77065     55390.77179     55390.77355    
      55390.77366     55390.77244     55390.77085     55390.77026     55390.77054     55390.77087     55390.77076     55390.77042     55390.77017     55390.77024    
      55390.77049     55390.77084     55390.77113     55390.77153     55390.77172    
1
  CONCENTRATION IN LAYER   9 AT END OF TIME STEP   1 IN STRESS PERIOD    1
  ---------------------------------------------------------------------------

                1               2               3               4               5               6               7               8               9              10
               11              12              13              14              15              16              17              18              19              20
               21              22              23              24              25
 ................................................................................................................................................................
   1  55390.77175     55390.78337     55390.78336     55390.77875     55390.77531     55390.77333     55390.77152     55390.77089     55390.77179     55390.77318    
      55390.77328     55390.77232     55390.77104     55390.77055     55390.77076     55390.77102     55390.77094     55390.77067     55390.77047     55390.77052    
      55390.77072     55390.77100     55390.77124     55390.77156     55390.77173    
1
  CONCENTRATION IN LAYER  10 AT END OF TIME STEP   1 IN STRESS PERIOD    1
  ---------------------------------------------------------------------------

                1               2               3               4               5               6               7               8               9              10
               11              12              13              14              15              16              17              18              19              20
               21              22              23              24              25
 ................................................................................................................................................................
   1  55390.77175     55390.77710     55390.77796     55390.77601     55390.77399     55390.77274     55390.77172     55390.77131     55390.77171     55390.77245    
      55390.77256     55390.77213     55390.77144     55390.77111     55390.77119     55390.77133     55390.77131     55390.77119     55390.77107     55390.77108    
      55390.77118     55390.77132     55390.77146     55390.77163     55390.77173    

 CONCENTRATION WILL BE SAVED ON UNIT **** AT END OF TIME STEP    1, STRESS PERIOD    1



         TIME SUMMARY AT END OF TIME STEP    1 IN STRESS PERIOD    1
                    SECONDS     MINUTES      HOURS       DAYS        YEARS
                    -----------------------------------------------------------
   TIME STEP LENGTH 1.72800E+06  28800.      480.00      20.000     5.47570E-02
 STRESS PERIOD TIME 1.72800E+06  28800.      480.00      20.000     5.47570E-02
         TOTAL TIME 1.72800E+06  28800.      480.00      20.000     5.47570E-02


end timestep


start timestep kper="1" kstp="2" mode="normal"

1
  CONCENTRATION IN LAYER   1 AT END OF TIME STEP   2 IN STRESS PERIOD    1
  ---------------------------------------------------------------------------

                1               2               3               4               5               6               7               8               9              10
               11              12              13              14              15              16              17              18              19              20
               21              22              23              24              25
 ................................................................................................................................................................
   1  55445.89608     55411.47517     55394.83073     55391.36726     55390.85098     55390.78241     55390.77345     55390.77221     55390.77202     55390.77206    
      55390.77202     55390.77189     55390.77164     55390.77138     55390.77123     55390.77115     55390.77108     55390.77103     55390.77101     55390.77104    
      55390.77111     55390.77124     55390.77138     55390.77158     55390.77171    
1
  CONCENTRATION IN LAYER   2 AT END OF TIME STEP   2 IN STRESS PERIOD    1
  ---------------------------------------------------------------------------

                1               2               3               4               5               6               7               8               9              10
               11              12              13              14              15              16              17              18              19              20
               21              22              23              24              25
 ................................................................................................................................................................
   1  55440.41530     55408.86316     55394.36042     55391.31769     55390.84648     55390.78207     55390.77368     55390.77256     55390.77224     55390.77208    
      55390.77190     55390.77179     55390.77156     55390.77127     55390.77102     55390.77085     55390.77074     55390.77070     55390.77070     55390.77076    
      55390.77088     55390.77105     55390.77126     55390.77154     55390.77171    
1
  CONCENTRATION IN LAYER   3 AT END OF TIME STEP   2 IN STRESS PERIOD    1
  ---------------------------------------------------------------------------

                1               2               3               4               5               6               7               8               9              10
               11              12              13              14              15              16              17              18              19              20
               21              22              23              24              25
 ................................................................................................................................................................
   1  55425.44372     55403.38917     55393.54892     55391.23682     55390.83873     55390.78142     55390.77403     55390.77313     55390.77259     55390.77210    
      55390.77171     55390.77163     55390.77145     55390.77111     55390.77071     55390.77040     55390.77022     55390.77019     55390.77023     55390.77034    
      55390.77051     55390.77076     55390.77105     55390.77147     55390.77169    
1
  CONCENTRATION IN LAYER   4 AT END OF TIME STEP   2 IN STRESS PERIOD    1
  ---------------------------------------------------------------------------

                1               2               3               4               5               6               7               8               9              10
               11              12              13              14              15              16              17              18              19              20
               21              22              23              24              25
 ................................................................................................................................................................
   1  55390.77175     55395.87791     55392.70458     55391.15125     55390.82926     55390.78052     55390.77432     55390.77360     55390.77288     55390.77214    
      55390.77157     55390.77154     55390.77139     55390.77099     55390.77046     55390.77001     55390.76977     55390.76976     55390.76982     55390.76997    
      55390.77018     55390.77049     55390.77086     55390.77139     55390.77168    
1
  CONCENTRATION IN LAYER   5 AT END OF TIME STEP   2 IN STRESS PERIOD    1
  ---------------------------------------------------------------------------

                1               2               3               4               5               6               7               8               9              10
               11              12              13              14              15              16              17              18              19              20
               21              22              23              24              25
 ................................................................................................................................................................
   1  55390.77175     55392.81217     55391.85930     55391.04646     55390.81830     55390.77944     55390.77442     55390.77384     55390.77304     55390.77218    
      55390.77153     55390.77153     55390.77139     55390.77095     55390.77033     55390.76981     55390.76953     55390.76952     55390.76959     55390.76975    
      55390.76998     55390.77032     55390.77072     55390.77132     55390.77167    
1
  CONCENTRATION IN LAYER   6 AT END OF TIME STEP   2 IN STRESS PERIOD    1
  ---------------------------------------------------------------------------

                1               2               3               4               5               6               7               8               9              10
               11              12              13              14              15              16              17              18              19              20
               21              22              23              24              25
 ................................................................................................................................................................
   1  55390.77175     55391.57965     55391.32149     55390.95000     55390.80693     55390.77824     55390.77436     55390.77388     55390.77307     55390.77220    
      55390.77155     55390.77156     55390.77141     55390.77095     55390.77031     55390.76977     55390.76948     55390.76947     55390.76953     55390.76969    
      55390.76992     55390.77027     55390.77067     55390.77128     55390.77166    
1
  CONCENTRATION IN LAYER   7 AT END OF TIME STEP   2 IN STRESS PERIOD    1
  ---------------------------------------------------------------------------

                1               2               3               4               5               6               7               8               9              10
               11              12              13              14              15              16              17              18              19              20
               21              22              23              24              25
 ................................................................................................................................................................
   1  55390.77175     55391.08964     55391.03219     55390.87805     55390.79671     55390.77703     55390.77418     55390.77378     55390.77302     55390.77220    
      55390.77158     55390.77159     55390.77144     55390.77099     55390.77037     55390.76986     55390.76957     55390.76955     55390.76961     55390.76976    
      55390.76997     55390.77030     55390.77068     55390.77128     55390.77166    
1
  CONCENTRATION IN LAYER   8 AT END OF TIME STEP   2 IN STRESS PERIOD    1
  ---------------------------------------------------------------------------

                1               2               3               4               5               6               7               8               9              10
               11              12              13              14              15              16              17              18              19              20
               21              22              23              24              25
 ................................................................................................................................................................
   1  55390.77175     55390.89675     55390.89085     55390.83181     55390.78871     55390.77595     55390.77392     55390.77358     55390.77289     55390.77216    
      55390.77161     55390.77162     55390.77148     55390.77107     55390.77051     55390.77004     55390.76978     55390.76976     55390.76981     55390.76994    
      55390.77012     55390.77042     55390.77077     55390.77131     55390.77166    
1
  CONCENTRATION IN LAYER   9 AT END OF TIME STEP   2 IN STRESS PERIOD    1
  ---------------------------------------------------------------------------

                1               2               3               4               5               6               7               8               9              10
               11              12              13              14              15              16              17              18              19              20
               21              22              23              24              25
 ................................................................................................................................................................
   1  55390.77175     55390.82214     55390.82785     55390.80561     55390.78336     55390.77512     55390.77356     55390.77322     55390.77266     55390.77211    
      55390.77171     55390.77169     55390.77154     55390.77116     55390.77070     55390.77033     55390.77012     55390.77009     55390.77012     55390.77022    
      55390.77038     55390.77063     55390.77092     55390.77137     55390.77167    
1
  CONCENTRATION IN LAYER  10 AT END OF TIME STEP   2 IN STRESS PERIOD    1
  ---------------------------------------------------------------------------

                1               2               3               4               5               6               7               8               9              10
               11              12              13              14              15              16              17              18              19              20
               21              22              23              24              25
 ................................................................................................................................................................
   1  55390.77175     55390.79679     55390.80423     55390.79409     55390.78088     55390.77466     55390.77290     55390.77241     55390.77222     55390.77223    
      55390.77211     55390.77192     55390.77156     55390.77119     55390.77095     55390.77080     55390.77068     55390.77060     55390.77056     55390.77061    
      55390.77072     55390.77091     55390.77113     55390.77144     55390.77167    

 CONCENTRATION WILL BE SAVED ON UNIT **** AT END OF TIME STEP    2, STRESS PERIOD    1



         TIME SUMMARY AT END OF TIME STEP    2 IN STRESS PERIOD    1
                    SECONDS     MINUTES      HOURS       DAYS        YEARS
                    -----------------------------------------------------------
   TIME STEP LENGTH 1.72800E+06  28800.      480.00      20.000     5.47570E-02
 STRESS PERIOD TIME 3.45600E+06  57600.      960.00      40.000     0.10951    
         TOTAL TIME 3.45600E+06  57600.      960.00      40.000     0.10951    


end timestep


start timestep kper="1" kstp="3" mode="normal"

1
  CONCENTRATION IN LAYER   1 AT END OF TIME STEP   3 IN STRESS PERIOD    1
  ---------------------------------------------------------------------------

                1               2               3               4               5               6               7               8               9              10
               11              12              13              14              15              16              17              18              19              20
               21              22              23              24              25
 ................................................................................................................................................................
   1  55460.57354     55422.98752     55399.25383     55392.41339     55391.04472     55390.81413     55390.77848     55390.77314     55390.77225     55390.77211    
      55390.77202     55390.77187     55390.77160     55390.77127     55390.77102     55390.77086     55390.77075     55390.77069     55390.77067     55390.77070    
      55390.77080     55390.77096     55390.77117     55390.77144     55390.77166    
1
  CONCENTRATION IN LAYER   2 AT END OF TIME STEP   3 IN STRESS PERIOD    1
  ---------------------------------------------------------------------------

                1               2               3               4               5               6               7               8               9              10
               11              12              13              14              15              16              17              18              19              20
               21              22              23              24              25
 ................................................................................................................................................................
   1  55452.69622     55418.75871     55398.28938     55392.28243     55391.02995     55390.81257     55390.77847     55390.77329     55390.77233     55390.77213    
      55390.77198     55390.77181     55390.77150     55390.77111     55390.77078     55390.77058     55390.77045     55390.77039     55390.77038     55390.77043    
      55390.77057     55390.77078     55390.77105     55390.77139     55390.77164    
1
  CONCENTRATION IN LAYER   3 AT END OF TIME STEP   3 IN STRESS PERIOD    1
  ---------------------------------------------------------------------------

                1               2               3               4               5               6               7               8               9              10
               11              12              13              14              15              16              17              18              19              20
               21              22              23              24              25
 ................................................................................................................................................................
   1  55432.73112     55410.32398     55396.63506     55392.06485     55391.00414     55390.80966     55390.77838     55390.77350     55390.77246     55390.77216    
      55390.77194     55390.77174     55390.77135     55390.77085     55390.77042     55390.77015     55390.76999     55390.76993     55390.76994     55390.77002    
      55390.77020     55390.77050     55390.77085     55390.77131     55390.77163    
1
  CONCENTRATION IN LAYER   4 AT END OF TIME STEP   3 IN STRESS PERIOD    1
  ---------------------------------------------------------------------------

                1               2               3               4               5               6               7               8               9              10
               11              12              13              14              15              16              17              18              19              20
               21              22              23              24              25
 ................................................................................................................................................................
   1  55390.77175     55399.44341     55394.84874     55391.82218     55390.97173     55390.80565     55390.77813     55390.77368     55390.77259     55390.77221    
      55390.77193     55390.77169     55390.77124     55390.77064     55390.77011     55390.76977     55390.76958     55390.76952     55390.76953     55390.76963    
      55390.76987     55390.77023     55390.77065     55390.77121     55390.77161    
1
  CONCENTRATION IN LAYER   5 AT END OF TIME STEP   3 IN STRESS PERIOD    1
  ---------------------------------------------------------------------------

                1               2               3               4               5               6               7               8               9              10
               11              12              13              14              15              16              17              18              19              20
               21              22              23              24              25
 ................................................................................................................................................................
   1  55390.77175     55394.55492     55393.16066     55391.54050     55390.93434     55390.80092     55390.77770     55390.77377     55390.77268     55390.77226    
      55390.77194     55390.77169     55390.77119     55390.77053     55390.76994     55390.76955     55390.76934     55390.76927     55390.76928     55390.76939    
      55390.76964     55390.77004     55390.77051     55390.77113     55390.77159    
1
  CONCENTRATION IN LAYER   6 AT END OF TIME STEP   3 IN STRESS PERIOD    1
  ---------------------------------------------------------------------------

                1               2               3               4               5               6               7               8               9              10
               11              12              13              14              15              16              17              18              19              20
               21              22              23              24              25
 ................................................................................................................................................................
   1  55390.77175     55392.39972     55392.04389     55391.28230     55390.89571     55390.79588     55390.77711     55390.77374     55390.77272     55390.77230    
      55390.77197     55390.77172     55390.77120     55390.77052     55390.76990     55390.76950     55390.76927     55390.76919     55390.76920     55390.76931    
      55390.76956     55390.76997     55390.77044     55390.77109     55390.77157    
1
  CONCENTRATION IN LAYER   7 AT END OF TIME STEP   3 IN STRESS PERIOD    1
  ---------------------------------------------------------------------------

                1               2               3               4               5               6               7               8               9              10
               11              12              13              14              15              16              17              18              19              20
               21              22              23              24              25
 ................................................................................................................................................................
   1  55390.77175     55391.46433     55391.40969     55391.08577     55390.86080     55390.79101     55390.77646     55390.77362     55390.77269     55390.77230    
      55390.77199     55390.77175     55390.77124     55390.77057     55390.76997     55390.76958     55390.76936     55390.76927     55390.76927     55390.76937    
      55390.76961     55390.77000     55390.77046     55390.77109     55390.77157    
1
  CONCENTRATION IN LAYER   8 AT END OF TIME STEP   3 IN STRESS PERIOD    1
  ---------------------------------------------------------------------------

                1               2               3               4               5               6               7               8               9              10
               11              12              13              14              15              16              17              18              19              20
               21              22              23              24              25
 ................................................................................................................................................................
   1  55390.77175     55391.06351     55391.08403     55390.95490     55390.83313     55390.78684     55390.77581     55390.77342     55390.77260     55390.77227    
      55390.77201     55390.77178     55390.77131     55390.77068     55390.77012     55390.76977     55390.76956     55390.76948     55390.76947     55390.76956    
      55390.76977     55390.77013     55390.77054     55390.77112     55390.77157    
1
  CONCENTRATION IN LAYER   9 AT END OF TIME STEP   3 IN STRESS PERIOD    1
  ---------------------------------------------------------------------------

                1               2               3               4               5               6               7               8               9              10
               11              12              13              14              15              16              17              18              19              20
               21              22              23              24              25
 ................................................................................................................................................................
   1  55390.77175     55390.89744     55390.93028     55390.87887     55390.81441     55390.78376     55390.77521     55390.77317     55390.77248     55390.77224    
      55390.77204     55390.77183     55390.77140     55390.77083     55390.77035     55390.77005     55390.76988     55390.76979     55390.76977     55390.76984    
      55390.77002     55390.77032     55390.77068     55390.77118     55390.77158    
1
  CONCENTRATION IN LAYER  10 AT END OF TIME STEP   3 IN STRESS PERIOD    1
  ---------------------------------------------------------------------------

                1               2               3               4               5               6               7               8               9              10
               11              12              13              14              15              16              17              18              19              20
               21              22              23              24              25
 ................................................................................................................................................................
   1  55390.77175     55390.83836     55390.86950     55390.84504     55390.80505     55390.78203     55390.77477     55390.77296     55390.77240     55390.77225    
      55390.77210     55390.77190     55390.77153     55390.77106     55390.77067     55390.77042     55390.77026     55390.77017     55390.77013     55390.77018    
      55390.77032     55390.77056     55390.77085     55390.77124     55390.77159    

 CONCENTRATION WILL BE SAVED ON UNIT **** AT END OF TIME STEP    3, STRESS PERIOD    1



         TIME SUMMARY AT END OF TIME STEP    3 IN STRESS PERIOD    1
                    SECONDS     MINUTES      HOURS       DAYS        YEARS
                    -----------------------------------------------------------
   TIME STEP LENGTH 1.72800E+06  28800.      480.00      20.000     5.47570E-02
 STRESS PERIOD TIME 5.18400E+06  86400.      1440.0      60.000     0.16427    
         TOTAL TIME 5.18400E+06  86400.      1440.0      60.000     0.16427    


end timestep


start timestep kper="1" kstp="4" mode="normal"

1
  CONCENTRATION IN LAYER   1 AT END OF TIME STEP   4 IN STRESS PERIOD    1
  ---------------------------------------------------------------------------

                1               2               3               4               5               6               7               8               9              10
               11              12              13              14              15              16              17              18              19              20
               21              22              23              24              25
 ................................................................................................................................................................
   1  55470.29866     55432.90736     55404.64253     55394.16454     55391.46445     55390.89818     55390.79364     55390.77583     55390.77279     55390.77222    
      55390.77200     55390.77181     55390.77155     55390.77120     55390.77087     55390.77063     55390.77047     55390.77038     55390.77036     55390.77040    
      55390.77051     55390.77070     55390.77095     55390.77128     55390.77157    
1
  CONCENTRATION IN LAYER   2 AT END OF TIME STEP   4 IN STRESS PERIOD    1
  ---------------------------------------------------------------------------

                1               2               3               4               5               6               7               8               9              10
               11              12              13              14              15              16              17              18              19              20
               21              22              23              24              25
 ................................................................................................................................................................
   1  55460.68047     55427.29758     55403.10433     55393.90423     55391.42832     55390.89331     55390.79307     55390.77587     55390.77286     55390.77223    
      55390.77194     55390.77172     55390.77143     55390.77105     55390.77067     55390.77039     55390.77021     55390.77011     55390.77011     55390.77016    
      55390.77031     55390.77054     55390.77084     55390.77122     55390.77156    
1
  CONCENTRATION IN LAYER   3 AT END OF TIME STEP   4 IN STRESS PERIOD    1
  ---------------------------------------------------------------------------

                1               2               3               4               5               6               7               8               9              10
               11              12              13              14              15              16              17              18              19              20
               21              22              23              24              25
 ................................................................................................................................................................
   1  55437.32668     55416.43355     55400.46577     55393.46456     55391.36429     55390.88425     55390.79196     55390.77591     55390.77298     55390.77225    
      55390.77186     55390.77158     55390.77125     55390.77081     55390.77037     55390.77002     55390.76979     55390.76969     55390.76970     55390.76979    
      55390.76998     55390.77028     55390.77065     55390.77113     55390.77154    
1
  CONCENTRATION IN LAYER   4 AT END OF TIME STEP   4 IN STRESS PERIOD    1
  ---------------------------------------------------------------------------

                1               2               3               4               5               6               7               8               9              10
               11              12              13              14              15              16              17              18              19              20
               21              22              23              24              25
 ................................................................................................................................................................
   1  55390.77175     55402.90776     55397.53853     55392.95684     55391.28270     55390.87200     55390.79037     55390.77588     55390.77309     55390.77228    
      55390.77180     55390.77148     55390.77111     55390.77061     55390.77009     55390.76968     55390.76940     55390.76930     55390.76932     55390.76944    
      55390.76967     55390.77003     55390.77046     55390.77103     55390.77151    
1
  CONCENTRATION IN LAYER   5 AT END OF TIME STEP   4 IN STRESS PERIOD    1
  ---------------------------------------------------------------------------

                1               2               3               4               5               6               7               8               9              10
               11              12              13              14              15              16              17              18              19              20
               21              22              23              24              25
 ................................................................................................................................................................
   1  55390.77175     55396.42010     55394.86115     55392.38648     55391.18895     55390.85777     55390.78843     55390.77574     55390.77316     55390.77232    
      55390.77179     55390.77144     55390.77104     55390.77051     55390.76993     55390.76946     55390.76916     55390.76904     55390.76907     55390.76920    
      55390.76945     55390.76984     55390.77031     55390.77095     55390.77148    
1
  CONCENTRATION IN LAYER   6 AT END OF TIME STEP   4 IN STRESS PERIOD    1
  ---------------------------------------------------------------------------

                1               2               3               4               5               6               7               8               9              10
               11              12              13              14              15              16              17              18              19              20
               21              22              23              24              25
 ................................................................................................................................................................
   1  55390.77175     55393.36174     55393.04053     55391.86550     55391.09249     55390.84275     55390.78631     55390.77550     55390.77317     55390.77235    
      55390.77180     55390.77145     55390.77104     55390.77049     55390.76989     55390.76940     55390.76908     55390.76896     55390.76898     55390.76911    
      55390.76937     55390.76976     55390.77024     55390.77090     55390.77147    
1
  CONCENTRATION IN LAYER   7 AT END OF TIME STEP   4 IN STRESS PERIOD    1
  ---------------------------------------------------------------------------

                1               2               3               4               5               6               7               8               9              10
               11              12              13              14              15              16              17              18              19              20
               21              22              23              24              25
 ................................................................................................................................................................
   1  55390.77175     55391.94091     55391.96705     55391.46193     55391.00479     55390.82839     55390.78421     55390.77519     55390.77312     55390.77235    
      55390.77183     55390.77149     55390.77108     55390.77054     55390.76995     55390.76947     55390.76915     55390.76902     55390.76904     55390.76916    
      55390.76940     55390.76979     55390.77025     55390.77090     55390.77146    
1
  CONCENTRATION IN LAYER   8 AT END OF TIME STEP   4 IN STRESS PERIOD    1
  ---------------------------------------------------------------------------

                1               2               3               4               5               6               7               8               9              10
               11              12              13              14              15              16              17              18              19              20
               21              22              23              24              25
 ................................................................................................................................................................
   1  55390.77175     55391.29053     55391.39506     55391.18496     55390.93443     55390.81615     55390.78235     55390.77484     55390.77301     55390.77233    
      55390.77187     55390.77155     55390.77116     55390.77064     55390.77009     55390.76964     55390.76934     55390.76922     55390.76922     55390.76932    
      55390.76954     55390.76990     55390.77033     55390.77093     55390.77146    
1
  CONCENTRATION IN LAYER   9 AT END OF TIME STEP   4 IN STRESS PERIOD    1
  ---------------------------------------------------------------------------

                1               2               3               4               5               6               7               8               9              10
               11              12              13              14              15              16              17              18              19              20
               21              22              23              24              25
 ................................................................................................................................................................
   1  55390.77175     55391.00817     55391.10838     55391.02257     55390.88678     55390.80729     55390.78093     55390.77451     55390.77289     55390.77232    
      55390.77193     55390.77164     55390.77128     55390.77079     55390.77028     55390.76988     55390.76962     55390.76949     55390.76949     55390.76957    
      55390.76976     55390.77007     55390.77045     55390.77098     55390.77147    
1
  CONCENTRATION IN LAYER  10 AT END OF TIME STEP   4 IN STRESS PERIOD    1
  ---------------------------------------------------------------------------

                1               2               3               4               5               6               7               8               9              10
               11              12              13              14              15              16              17              18              19              20
               21              22              23              24              25
 ................................................................................................................................................................
   1  55390.77175     55390.90402     55390.99037     55390.94934     55390.86311     55390.80266     55390.78015     55390.77428     55390.77279     55390.77233    
      55390.77204     55390.77179     55390.77144     55390.77098     55390.77052     55390.77017     55390.76994     55390.76981     55390.76979     55390.76984    
      55390.76999     55390.77025     55390.77058     55390.77103     55390.77148    

 CONCENTRATION WILL BE SAVED ON UNIT **** AT END OF TIME STEP    4, STRESS PERIOD    1



         TIME SUMMARY AT END OF TIME STEP    4 IN STRESS PERIOD    1
                    SECONDS     MINUTES      HOURS       DAYS        YEARS
                    -----------------------------------------------------------
   TIME STEP LENGTH 1.72800E+06  28800.      480.00      20.000     5.47570E-02
 STRESS PERIOD TIME 6.91200E+06 1.15200E+05  1920.0      80.000     0.21903    
         TOTAL TIME 6.91200E+06 1.15200E+05  1920.0      80.000     0.21903    


end timestep


start timestep kper="1" kstp="5" mode="normal"

1
  CONCENTRATION IN LAYER   1 AT END OF TIME STEP   5 IN STRESS PERIOD    1
  ---------------------------------------------------------------------------

                1               2               3               4               5               6               7               8               9              10
               11              12              13              14              15              16              17              18              19              20
               21              22              23              24              25
 ................................................................................................................................................................
   1  55476.77472     55440.92049     55410.37616     55396.61140     55392.20709     55391.07881     55390.83160     55390.78315     55390.77419     55390.77249    
      55390.77202     55390.77176     55390.77149     55390.77114     55390.77077     55390.77046     55390.77025     55390.77012     55390.77010     55390.77014    
      55390.77025     55390.77046     55390.77073     55390.77110     55390.77147    
1
  CONCENTRATION IN LAYER   2 AT END OF TIME STEP   5 IN STRESS PERIOD    1
  ---------------------------------------------------------------------------

                1               2               3               4               5               6               7               8               9              10
               11              12              13              14              15              16              17              18              19              20
               21              22              23              24              25
 ................................................................................................................................................................
   1  55465.95029     55434.23272     55408.25880     55396.17854     55392.13471     55391.06724     55390.82983     55390.78295     55390.77420     55390.77247    
      55390.77195     55390.77167     55390.77137     55390.77099     55390.77059     55390.77025     55390.77001     55390.76989     55390.76987     55390.76993    
      55390.77007     55390.77031     55390.77063     55390.77105     55390.77146    
1
  CONCENTRATION IN LAYER   3 AT END OF TIME STEP   5 IN STRESS PERIOD    1
  ---------------------------------------------------------------------------

                1               2               3               4               5               6               7               8               9              10
               11              12              13              14              15              16              17              18              19              20
               21              22              23              24              25
 ................................................................................................................................................................
   1  55440.32351     55421.51211     55404.61800     55395.43769     55392.00499     55391.04562     55390.82644     55390.78255     55390.77420     55390.77246    
      55390.77186     55390.77152     55390.77119     55390.77077     55390.77031     55390.76991     55390.76964     55390.76951     55390.76952     55390.76960    
      55390.76978     55390.77008     55390.77046     55390.77096     55390.77143    
1
  CONCENTRATION IN LAYER   4 AT END OF TIME STEP   5 IN STRESS PERIOD    1
  ---------------------------------------------------------------------------

                1               2               3               4               5               6               7               8               9              10
               11              12              13              14              15              16              17              18              19              20
               21              22              23              24              25
 ................................................................................................................................................................
   1  55390.77175     55406.00966     55400.49757     55394.56237     55391.83789     55391.01632     55390.82175     55390.78196     55390.77420     55390.77245    
      55390.77179     55390.77141     55390.77104     55390.77057     55390.77005     55390.76960     55390.76930     55390.76915     55390.76917     55390.76927    
      55390.76949     55390.76984     55390.77028     55390.77086     55390.77139    
1
  CONCENTRATION IN LAYER   5 AT END OF TIME STEP   5 IN STRESS PERIOD    1
  ---------------------------------------------------------------------------

                1               2               3               4               5               6               7               8               9              10
               11              12              13              14              15              16              17              18              19              20
               21              22              23              24              25
 ................................................................................................................................................................
   1  55390.77175     55398.21914     55396.79669     55393.59886     55391.64612     55390.98217     55390.81621     55390.78121     55390.77416     55390.77247    
      55390.77176     55390.77135     55390.77096     55390.77046     55390.76990     55390.76941     55390.76907     55390.76891     55390.76893     55390.76905    
      55390.76929     55390.76967     55390.77014     55390.77077     55390.77136    
1
  CONCENTRATION IN LAYER   6 AT END OF TIME STEP   5 IN STRESS PERIOD    1
  ---------------------------------------------------------------------------

                1               2               3               4               5               6               7               8               9              10
               11              12              13              14              15              16              17              18              19              20
               21              22              23              24              25
 ................................................................................................................................................................
   1  55390.77175     55394.35604     55394.23086     55392.71951     55391.44887     55390.94609     55390.81030     55390.78035     55390.77407     55390.77248    
      55390.77177     55390.77135     55390.77095     55390.77043     55390.76985     55390.76934     55390.76898     55390.76882     55390.76884     55390.76895    
      55390.76920     55390.76959     55390.77007     55390.77072     55390.77134    
1
  CONCENTRATION IN LAYER   7 AT END OF TIME STEP   5 IN STRESS PERIOD    1
  ---------------------------------------------------------------------------

                1               2               3               4               5               6               7               8               9              10
               11              12              13              14              15              16              17              18              19              20
               21              22              23              24              25
 ................................................................................................................................................................
   1  55390.77175     55392.45605     55392.69137     55392.02097     55391.26785     55390.91155     55390.80461     55390.77947     55390.77394     55390.77247    
      55390.77180     55390.77139     55390.77099     55390.77048     55390.76990     55390.76939     55390.76904     55390.76887     55390.76888     55390.76899    
      55390.76922     55390.76960     55390.77007     55390.77071     55390.77133    
1
  CONCENTRATION IN LAYER   8 AT END OF TIME STEP   5 IN STRESS PERIOD    1
  ---------------------------------------------------------------------------

                1               2               3               4               5               6               7               8               9              10
               11              12              13              14              15              16              17              18              19              20
               21              22              23              24              25
 ................................................................................................................................................................
   1  55390.77175     55391.55204     55391.82413     55391.54091     55391.12292     55390.88212     55390.79969     55390.77867     55390.77379     55390.77246    
      55390.77185     55390.77146     55390.77108     55390.77058     55390.77003     55390.76954     55390.76920     55390.76903     55390.76904     55390.76913    
      55390.76934     55390.76969     55390.77013     55390.77074     55390.77134    
1
  CONCENTRATION IN LAYER   9 AT END OF TIME STEP   5 IN STRESS PERIOD    1
  ---------------------------------------------------------------------------

                1               2               3               4               5               6               7               8               9              10
               11              12              13              14              15              16              17              18              19              20
               21              22              23              24              25
 ................................................................................................................................................................
   1  55390.77175     55391.14498     55391.36958     55391.25526     55391.02479     55390.86087     55390.79608     55390.77804     55390.77366     55390.77246    
      55390.77192     55390.77157     55390.77120     55390.77073     55390.77020     55390.76975     55390.76944     55390.76927     55390.76926     55390.76933    
      55390.76952     55390.76983     55390.77023     55390.77078     55390.77134    
1
  CONCENTRATION IN LAYER  10 AT END OF TIME STEP   5 IN STRESS PERIOD    1
  ---------------------------------------------------------------------------

                1               2               3               4               5               6               7               8               9              10
               11              12              13              14              15              16              17              18              19              20
               21              22              23              24              25
 ................................................................................................................................................................
   1  55390.77175     55390.99048     55391.17673     55391.12464     55390.97597     55390.84980     55390.79418     55390.77770     55390.77359     55390.77250    
      55390.77202     55390.77170     55390.77136     55390.77091     55390.77042     55390.77000     55390.76970     55390.76954     55390.76950     55390.76956    
      55390.76971     55390.76998     55390.77034     55390.77083     55390.77135    

 CONCENTRATION WILL BE SAVED ON UNIT **** AT END OF TIME STEP    5, STRESS PERIOD    1



         TIME SUMMARY AT END OF TIME STEP    5 IN STRESS PERIOD    1
                    SECONDS     MINUTES      HOURS       DAYS        YEARS
                    -----------------------------------------------------------
   TIME STEP LENGTH 1.72800E+06  28800.      480.00      20.000     5.47570E-02
 STRESS PERIOD TIME 8.64000E+06 1.44000E+05  2400.0      100.00     0.27379    
         TOTAL TIME 8.64000E+06 1.44000E+05  2400.0      100.00     0.27379    


end timestep


start timestep kper="1" kstp="6" mode="normal"

1
  CONCENTRATION IN LAYER   1 AT END OF TIME STEP   6 IN STRESS PERIOD    1
  ---------------------------------------------------------------------------

                1               2               3               4               5               6               7               8               9              10
               11              12              13              14              15              16              17              18              19              20
               21              22              23              24              25
 ................................................................................................................................................................
   1  55481.12022     55447.15853     55415.96166     55399.62398     55393.34010     55391.41015     55390.91281     55390.80078     55390.77775     55390.77318    
      55390.77213     55390.77174     55390.77143     55390.77108     55390.77069     55390.77033     55390.77007     55390.76991     55390.76987     55390.76990    
      55390.77001     55390.77023     55390.77052     55390.77091     55390.77135    
1
  CONCENTRATION IN LAYER   2 AT END OF TIME STEP   6 IN STRESS PERIOD    1
  ---------------------------------------------------------------------------

                1               2               3               4               5               6               7               8               9              10
               11              12              13              14              15              16              17              18              19              20
               21              22              23              24              25
 ................................................................................................................................................................
   1  55469.47418     55439.67019     55413.31003     55398.98778     55393.21420     55391.38671     55390.90861     55390.80009     55390.77766     55390.77314    
      55390.77206     55390.77164     55390.77131     55390.77094     55390.77052     55390.77014     55390.76986     55390.76970     55390.76967     55390.76972    
      55390.76985     55390.77010     55390.77043     55390.77086     55390.77133    
1
  CONCENTRATION IN LAYER   3 AT END OF TIME STEP   6 IN STRESS PERIOD    1
  ---------------------------------------------------------------------------

                1               2               3               4               5               6               7               8               9              10
               11              12              13              14              15              16              17              18              19              20
               21              22              23              24              25
 ................................................................................................................................................................
   1  55442.32061     55425.58603     55408.73607     55397.88780     55392.98672     55391.34272     55390.90061     55390.79879     55390.77748     55390.77308    
      55390.77195     55390.77149     55390.77113     55390.77072     55390.77027     55390.76985     55390.76954     55390.76936     55390.76935     55390.76942    
      55390.76960     55390.76989     55390.77027     55390.77078     55390.77130    
1
  CONCENTRATION IN LAYER   4 AT END OF TIME STEP   6 IN STRESS PERIOD    1
  ---------------------------------------------------------------------------

                1               2               3               4               5               6               7               8               9              10
               11              12              13              14              15              16              17              18              19              20
               21              22              23              24              25
 ................................................................................................................................................................
   1  55390.77175     55408.64852     55403.48283     55396.56805     55392.69128     55391.28286     55390.88957     55390.79697     55390.77723     55390.77303    
      55390.77187     55390.77137     55390.77098     55390.77053     55390.77003     55390.76956     55390.76922     55390.76904     55390.76904     55390.76913    
      55390.76933     55390.76967     55390.77011     55390.77068     55390.77127    
1
  CONCENTRATION IN LAYER   5 AT END OF TIME STEP   6 IN STRESS PERIOD    1
  ---------------------------------------------------------------------------

                1               2               3               4               5               6               7               8               9              10
               11              12              13              14              15              16              17              18              19              20
               21              22              23              24              25
 ................................................................................................................................................................
   1  55390.77175     55399.83700     55398.81590     55395.13270     55392.35198     55391.21280     55390.87655     55390.79481     55390.77694     55390.77299    
      55390.77183     55390.77131     55390.77089     55390.77042     55390.76988     55390.76938     55390.76901     55390.76881     55390.76882     55390.76892    
      55390.76914     55390.76951     55390.76997     55390.77060     55390.77123    
1
  CONCENTRATION IN LAYER   6 AT END OF TIME STEP   6 IN STRESS PERIOD    1
  ---------------------------------------------------------------------------

                1               2               3               4               5               6               7               8               9              10
               11              12              13              14              15              16              17              18              19              20
               21              22              23              24              25
 ................................................................................................................................................................
   1  55390.77175     55395.28119     55395.55635     55393.81233     55392.00195     55391.13867     55390.86275     55390.79250     55390.77660     55390.77295    
      55390.77183     55390.77130     55390.77088     55390.77039     55390.76983     55390.76931     55390.76893     55390.76872     55390.76872     55390.76882    
      55390.76905     55390.76943     55390.76990     55390.77054     55390.77121    
1
  CONCENTRATION IN LAYER   7 AT END OF TIME STEP   6 IN STRESS PERIOD    1
  ---------------------------------------------------------------------------

                1               2               3               4               5               6               7               8               9              10
               11              12              13              14              15              16              17              18              19              20
               21              22              23              24              25
 ................................................................................................................................................................
   1  55390.77175     55392.95934     55393.54036     55392.75600     55391.68069     55391.06765     55390.84951     55390.79026     55390.77625     55390.77292    
      55390.77186     55390.77134     55390.77092     55390.77043     55390.76987     55390.76935     55390.76897     55390.76876     55390.76875     55390.76884    
      55390.76906     55390.76943     55390.76990     55390.77053     55390.77120    
1
  CONCENTRATION IN LAYER   8 AT END OF TIME STEP   6 IN STRESS PERIOD    1
  ---------------------------------------------------------------------------

                1               2               3               4               5               6               7               8               9              10
               11              12              13              14              15              16              17              18              19              20
               21              22              23              24              25
 ................................................................................................................................................................
   1  55390.77175     55391.82233     55392.35336     55392.02580     55391.42430     55391.00724     55390.83814     55390.78832     55390.77593     55390.77289    
      55390.77190     55390.77141     55390.77101     55390.77053     55390.76999     55390.76948     55390.76910     55390.76889     55390.76888     55390.76896    
      55390.76916     55390.76950     55390.76995     55390.77055     55390.77120    
1
  CONCENTRATION IN LAYER   9 AT END OF TIME STEP   6 IN STRESS PERIOD    1
  ---------------------------------------------------------------------------

                1               2               3               4               5               6               7               8               9              10
               11              12              13              14              15              16              17              18              19              20
               21              22              23              24              25
 ................................................................................................................................................................
   1  55390.77175     55391.29567     55391.70914     55391.58513     55391.25063     55390.96370     55390.82985     55390.78690     55390.77570     55390.77289    
      55390.77197     55390.77152     55390.77113     55390.77067     55390.77015     55390.76966     55390.76930     55390.76910     55390.76907     55390.76913    
[...]
      55414.33618     55413.97983     55413.45820     55412.71941     55411.49562    
1
  CONCENTRATION IN LAYER   9 AT END OF TIME STEP  99 IN STRESS PERIOD    1
  ---------------------------------------------------------------------------

                1               2               3               4               5               6               7               8               9              10
               11              12              13              14              15              16              17              18              19              20
               21              22              23              24              25
 ................................................................................................................................................................
   1  55390.77175     55392.38581     55396.09482     55400.54549     55404.48757     55407.53289     55409.74712     55411.31477     55412.41246     55413.17790    
      55413.71091     55414.08189     55414.33997     55414.51923     55414.64304     55414.72517     55414.75339     55414.73968     55414.68208     55414.55446    
      55414.32960     55413.97538     55413.45517     55412.71733     55411.49435    
1
  CONCENTRATION IN LAYER  10 AT END OF TIME STEP  99 IN STRESS PERIOD    1
  ---------------------------------------------------------------------------

                1               2               3               4               5               6               7               8               9              10
               11              12              13              14              15              16              17              18              19              20
               21              22              23              24              25
 ................................................................................................................................................................
   1  55390.77175     55391.98488     55395.14073     55399.40127     55403.48339     55406.76504     55409.19285     55410.92390     55412.13928     55412.98757    
      55413.57842     55413.98968     55414.27580     55414.47457     55414.61200     55414.70393     55414.73898     55414.72818     55414.67421     55414.54929    
      55414.32616     55413.97306     55413.45359     55412.71625     55411.49368    

 CONCENTRATION WILL BE SAVED ON UNIT **** AT END OF TIME STEP   99, STRESS PERIOD    1



         TIME SUMMARY AT END OF TIME STEP   99 IN STRESS PERIOD    1
                    SECONDS     MINUTES      HOURS       DAYS        YEARS
                    -----------------------------------------------------------
   TIME STEP LENGTH 1.72800E+06  28800.      480.00      20.000     5.47570E-02
 STRESS PERIOD TIME 1.71072E+08 2.85120E+06  47520.      1980.0      5.4209    
         TOTAL TIME 1.71072E+08 2.85120E+06  47520.      1980.0      5.4209    


end timestep


start timestep kper="1" kstp="100" mode="normal"


 SSM PACKAGE (SSM) FLOW RATES   PERIOD      1   STEP      100
 ------------------------------------------------------------------------------------------------
   NUMBER   CELLID                   BOUND Q        SSM CONC          RATE         PACKAGE NAME  
 ------------------------------------------------------------------------------------------------
     1      (4,1,1)               0.0000000       0.0000000       0.0000000            CHD       
     2      (5,1,1)               0.0000000       0.0000000       0.0000000            CHD       
     3      (6,1,1)               0.0000000       0.0000000       0.0000000            CHD       
     4      (7,1,1)               0.0000000       0.0000000       0.0000000            CHD       
     5      (8,1,1)               0.0000000       0.0000000       0.0000000            CHD       
     6      (9,1,1)               0.0000000       0.0000000       0.0000000            CHD       
     7      (10,1,1)              0.0000000       0.0000000       0.0000000            CHD       
     8      (1,1,25)             -2.08333338E-02  55411.805      -1154.4126            CHD       
     9      (2,1,25)             -2.08333338E-02  55411.804      -1154.4126            CHD       
     10     (3,1,25)             -2.08333338E-02  55411.803      -1154.4126            CHD       
     11     (4,1,25)             -2.08333338E-02  55411.801      -1154.4126            CHD       
     12     (5,1,25)             -2.08333338E-02  55411.799      -1154.4125            CHD       
     13     (6,1,25)             -2.08333338E-02  55411.797      -1154.4125            CHD       
     14     (7,1,25)             -2.08333338E-02  55411.795      -1154.4124            CHD       
     15     (8,1,25)             -2.08333338E-02  55411.793      -1154.4124            CHD       
     16     (9,1,25)             -2.08333338E-02  55411.792      -1154.4124            CHD       
     17     (10,1,25)            -2.08333338E-02  55411.791      -1154.4123            CHD       
     1      (1,1,1)               2.08333329E-02  55550.796       1157.3082          CHDTAIL     
     2      (2,1,1)               2.08333329E-02  55550.796       1157.3082          CHDTAIL     
     3      (3,1,1)               2.08333329E-02  55550.796       1157.3082          CHDTAIL     
 ------------------------------------------------------------------------------------------------




 CNC PACKAGE (CNC) FLOW RATES   PERIOD      1   STEP      100
 -----------------------------------------------
   NUMBER   CELLID                    RATE      
 -----------------------------------------------
     1      (4,1,1)               1149.1746     
     2      (5,1,1)               1153.8990     
     3      (6,1,1)               1153.9329     
     4      (7,1,1)               1153.9512     
     5      (8,1,1)               1153.9610     
     6      (9,1,1)               1153.9660     
     7      (10,1,1)              1153.9681     
 -----------------------------------------------



1
  CONCENTRATION IN LAYER   1 AT END OF TIME STEP 100 IN STRESS PERIOD    1
  ---------------------------------------------------------------------------

                1               2               3               4               5               6               7               8               9              10
               11              12              13              14              15              16              17              18              19              20
               21              22              23              24              25
 ................................................................................................................................................................
   1  55490.64740     55465.09386     55444.72605     55433.55514     55427.24065     55423.31738     55420.72181     55418.95114     55417.72741     55416.87750    
      55416.28619     55415.87457     55415.58793     55415.38806     55415.24738     55415.14345     55415.05611     55414.96655     55414.85509     55414.69831    
      55414.46724     55414.12739     55413.63992     55412.95128     55411.80497    
1
  CONCENTRATION IN LAYER   2 AT END OF TIME STEP 100 IN STRESS PERIOD    1
  ---------------------------------------------------------------------------

                1               2               3               4               5               6               7               8               9              10
               11              12              13              14              15              16              17              18              19              20
               21              22              23              24              25
 ................................................................................................................................................................
   1  55477.20744     55455.54788     55440.08923     55431.25390     55425.91616     55422.46801     55420.14874     55418.55653     55417.45364     55416.68707    
      55416.15364     55415.78230     55415.52368     55415.34332     55415.21626     55415.12177     55415.04089     55414.95581     55414.84757     55414.69310    
      55414.46369     55414.12498     55413.63829     55412.95017     55411.80430    
1
  CONCENTRATION IN LAYER   3 AT END OF TIME STEP 100 IN STRESS PERIOD    1
  ---------------------------------------------------------------------------

                1               2               3               4               5               6               7               8               9              10
               11              12              13              14              15              16              17              18              19              20
               21              22              23              24              25
 ................................................................................................................................................................
   1  55446.72416     55437.94432     55432.02341     55427.09888     55423.44730     55420.86312     55419.06106     55417.80644     55416.93296     55416.32488    
      55415.90153     55415.60678     55415.40149     55415.25825     55415.15710     55415.08058     55415.01194     55414.93539     55414.83326     55414.68321    
      55414.45693     55414.12041     55413.63520     55412.94807     55411.80302    
1
  CONCENTRATION IN LAYER   4 AT END OF TIME STEP 100 IN STRESS PERIOD    1
  ---------------------------------------------------------------------------

                1               2               3               4               5               6               7               8               9              10
               11              12              13              14              15              16              17              18              19              20
               21              22              23              24              25
 ................................................................................................................................................................
   1  55390.77175     55417.08306     55422.62702     55421.78111     55420.14473     55418.67623     55417.56920     55416.77507     55416.21649     55415.82639    
      55415.55455     55415.36523     55415.23332     55415.14117     55415.07570     55415.02395     55414.97208     55414.90725     55414.81355     55414.66961    
      55414.44766     55414.11413     55413.63095     55412.94518     55411.80126    
1
  CONCENTRATION IN LAYER   5 AT END OF TIME STEP 100 IN STRESS PERIOD    1
  ---------------------------------------------------------------------------

                1               2               3               4               5               6               7               8               9              10
               11              12              13              14              15              16              17              18              19              20
               21              22              23              24              25
 ................................................................................................................................................................
   1  55390.77175     55405.24236     55413.87121     55416.16189     55416.36854     55416.13534     55415.82326     55415.56413     55415.37446     55415.24041    
      55415.14667     55415.08129     55415.03566     55415.00357     55414.98007     55414.95755     55414.92520     55414.87409     55414.79036     55414.65364    
      55414.43680     55414.10678     55413.62597     55412.94180     55411.79919    
1
  CONCENTRATION IN LAYER   6 AT END OF TIME STEP 100 IN STRESS PERIOD    1
  ---------------------------------------------------------------------------

                1               2               3               4               5               6               7               8               9              10
               11              12              13              14              15              16              17              18              19              20
               21              22              23              24              25
 ................................................................................................................................................................
   1  55390.77175     55398.73581     55406.76991     55410.84047     55412.62415     55413.50777     55413.99402     55414.29214     55414.48933     55414.62431    
      55414.71780     55414.78275     55414.82784     55414.85891     55414.87960     55414.88816     55414.87572     55414.83904     55414.76589     55414.63686    
      55414.42541     55414.09907     55413.62075     55412.93824     55411.79701    
1
  CONCENTRATION IN LAYER   7 AT END OF TIME STEP 100 IN STRESS PERIOD    1
  ---------------------------------------------------------------------------

                1               2               3               4               5               6               7               8               9              10
               11              12              13              14              15              16              17              18              19              20
               21              22              23              24              25
 ................................................................................................................................................................
   1  55390.77175     55395.21576     55401.60043     55406.31428     55409.21963     55411.05666     55412.26593     55413.08451     55413.64782     55414.03839    
      55414.30993     55414.49884     55414.63022     55414.72134     55414.78393     55414.82328     55414.82844     55414.80517     55414.74242     55414.62089    
      55414.41462     55414.09178     55413.61580     55412.93486     55411.79495    
1
  CONCENTRATION IN LAYER   8 AT END OF TIME STEP 100 IN STRESS PERIOD    1
  ---------------------------------------------------------------------------

                1               2               3               4               5               6               7               8               9              10
               11              12              13              14              15              16              17              18              19              20
               21              22              23              24              25
 ................................................................................................................................................................
   1  55390.77175     55393.34049     55398.15443     55402.85104     55406.44025     55409.00504     55410.80435     55412.05892     55412.93222     55413.53999    
      55413.96298     55414.25735     55414.46212     55414.60434     55414.70254     55414.76759     55414.78993     55414.77556     55414.72211     55414.60729    
      55414.40548     55414.08560     55413.61160     55412.93200     55411.79319    
1
  CONCENTRATION IN LAYER   9 AT END OF TIME STEP 100 IN STRESS PERIOD    1
  ---------------------------------------------------------------------------

                1               2               3               4               5               6               7               8               9              10
               11              12              13              14              15              16              17              18              19              20
               21              22              23              24              25
 ................................................................................................................................................................
   1  55390.77175     55392.38581     55396.09482     55400.54549     55404.48757     55407.53289     55409.74712     55411.31477     55412.41246     55413.17791    
      55413.71092     55414.08190     55414.34001     55414.51936     55414.64342     55414.72700     55414.76255     55414.75383     55414.70717     55414.59738    
      55414.39886     55414.08113     55413.60856     55412.92992     55411.79191    
1
  CONCENTRATION IN LAYER  10 AT END OF TIME STEP 100 IN STRESS PERIOD    1
  ---------------------------------------------------------------------------

                1               2               3               4               5               6               7               8               9              10
               11              12              13              14              15              16              17              18              19              20
               21              22              23              24              25
 ................................................................................................................................................................
   1  55390.77175     55391.98488     55395.14073     55399.40127     55403.48339     55406.76505     55409.19285     55410.92390     55412.13928     55412.98757    
      55413.57842     55413.98969     55414.27584     55414.47470     55414.61236     55414.70565     55414.74832     55414.74237     55414.69927     55414.59218    
      55414.39540     55414.07879     55413.60697     55412.92883     55411.79124    

 CONCENTRATION WILL BE SAVED ON UNIT **** AT END OF TIME STEP  100, STRESS PERIOD    1


  MASS BUDGET FOR ENTIRE MODEL AT END OF TIME STEP  100, STRESS PERIOD   1
  ---------------------------------------------------------------------------------------------------

     CUMULATIVE MASS      M       RATES FOR THIS TIME STEP      M/T          PACKAGE NAME    
     ------------------                 ------------------------                     ----------------

           IN:                                      IN:
           ---                                      ---
     STORAGE-AQUEOUS =           0.7635       STORAGE-AQUEOUS =       2.8194E-11     MST                              
                 CHD =           0.0000                   CHD =           0.0000     SSM_CHD                          
                 CHD =     6943849.2273                   CHD =        3471.9246     SSM_CHDTAIL                      
                 CNC =    16155062.2197                   CNC =        8077.5156     CNC                              

            TOTAL IN =    23098912.2105              TOTAL IN =       11549.4402

          OUT:                                     OUT:
          ----                                     ----
     STORAGE-AQUEOUS =        8349.0381       STORAGE-AQUEOUS =           0.6527     MST                              
                 CHD =    23081402.8385                   CHD =       11544.1249     SSM_CHD                          
                 CHD =           0.0000                   CHD =           0.0000     SSM_CHDTAIL                      
                 CNC =        9160.3340                   CNC =           4.6627     CNC                              

           TOTAL OUT =    23098912.2105             TOTAL OUT =       11549.4402

            IN - OUT =      -1.7881E-07              IN - OUT =       9.6406E-11

 PERCENT DISCREPANCY =          -0.00     PERCENT DISCREPANCY =           0.00




         TIME SUMMARY AT END OF TIME STEP  100 IN STRESS PERIOD    1
                    SECONDS     MINUTES      HOURS       DAYS        YEARS
                    -----------------------------------------------------------
   TIME STEP LENGTH 1.72800E+06  28800.      480.00      20.000     5.47570E-02
 STRESS PERIOD TIME 1.72800E+08 2.88000E+06  48000.      2000.0      5.4757    
         TOTAL TIME 1.72800E+08 2.88000E+06  48000.      2000.0      5.4757    


end timestep

