                                   MODFLOW 6
                U.S. GEOLOGICAL SURVEY MODULAR HYDROLOGIC MODEL
                       GROUNDWATER TRANSPORT MODEL (GWT)
                VERSION 6.5.0.dev0+prt (preliminary) 10/07/2023
                               ***DEVELOP MODE***

   MODFLOW 6 compiled Oct 07 2023 02:19:02 with Intel(R) Fortran Intel(R) 64
   Compiler Classic for applications running on Intel(R) 64, Version 2021.7.0
                             Build 20220726_000000

This software is preliminary or provisional and is subject to 
revision. It is being provided to meet the need for timely best 
science. The software has not received final approval by the U.S. 
Geological Survey (USGS). No warranty, expressed or implied, is made 
by the USGS or the U.S. Government as to the functionality of the 
software and related material nor shall the fact of release 
constitute any such warranty. The software is provided on the 
condition that neither the USGS nor the U.S. Government shall be held 
liable for any damages resulting from the authorized or unauthorized 
use of the software.


As a work of the United States Government, this USGS product is 
in the public domain within the United States. You can copy, 
modify, distribute, and perform the work, even for commercial 
purposes, all without asking permission. Additionally, USGS 
waives copyright and related rights in the work worldwide 
through CC0 1.0 Universal Public Domain Dedication 
(https://creativecommons.org/publicdomain/zero/1.0/).

The following GNU Lesser General Public License (LGPL) libraries
are used in this USGS product:

    SPARSKIT version 2.0
      ilut, luson, and qsplit 
      (https://www-users.cse.umn.edu/~saad/software/SPARSKIT/)

    RCM - Reverse Cuthill McKee Ordering
      (https://people.math.sc.edu/Burkardt/f_src/rcm/rcm.html)

    BLAS - Basic Linear Algebra Subprograms Level 1
      (https://people.math.sc.edu/Burkardt/f_src/blas1_d/blas1_d.html)

    SPARSEKIT - Sparse Matrix Utility Package
      amux, dperm, dvperm, rperm, and cperm
      (https://people.sc.fsu.edu/~jburkardt/f77_src/sparsekit/sparsekit.html)

The following BSD-3 License libraries are used in this USGS product:

    Modern Fortran DAG Library
      Copyright (c) 2018, Jacob Williams
      All rights reserved.
      (https://github.com/jacobwilliams/daglib)

MODFLOW 6 compiler options: /Isrc\libmf6core.a.p /Isrc /I..\src
/Isrc\libmf6_external.a.p /MTd /nologo /warn:general /warn:truncated_source
/stand:f08 /Zi /traceback /O2 /fpe:0 /heap-arrays:0 /traceback /fpp
/Qdiag-disable:7416 /Qdiag-disable:7025 /Qdiag-disable:5268
/Fdsrc\libmf6core.a.p\Utilities_compilerversion.F90.pdb
/module:src\libmf6core.a.p
/Fosrc/libmf6core.a.p/Utilities_compilerversion.F90.obj /c

System command used to initiate simulation:
c:\Users\portega\anaconda3\envs\mf6rtm\python.exe -m ipykernel_launcher --f=c:\Users\portega\AppData\Roaming\jupyter\runtime\kernel-v2-17404w7nug58txkWt.json

MODFLOW was compiled using uniform precision.

Real Variables
  KIND: 8
  TINY (smallest non-zero value):    2.225074-308
  HUGE (largest value):    1.797693+308
  PRECISION: 15
  SIZE IN BITS: 64

Integer Variables
  KIND: 4
  HUGE (largest value): 2147483647
  SIZE IN BITS: 32

Long Integer Variables
  KIND: 8
  HUGE (largest value): 9223372036854775807
  SIZE IN BITS: 64

Logical Variables
  KIND: 4
  SIZE IN BITS: 32
 
 NAMEFILE OPTIONS:
 END NAMEFILE OPTIONS:

 DIS -- STRUCTURED GRID DISCRETIZATION PACKAGE, VERSION 2 : 3/27/2014 - INPUT READ FROM MEMPATH: __INPUT__/S/DIS                                   


 DSP-- DISPERSION PACKAGE, VERSION 1, 1/24/2018 INPUT READ FROM MEMPATH: __INPUT__/S/DSP                                   


 Setting Discretization Options
    Model length unit [0=UND, 1=FEET, 2=METERS, 3=CENTIMETERS] set as 2
 End Setting Discretization Options

 Setting Discretization Dimensions
    NLAY = 10
    NROW = 1
    NCOL = 25
 End Setting Discretization Dimensions

 Setting Discretization Griddata
    DELR set from input file
    DELC set from input file
    TOP set from input file
    BOTM set from input file
    IDOMAIN set from input file
 End Setting Discretization Griddata


 FMI -- FLOW MODEL INTERFACE,' VERSION 2, 8/17/2023
  FLOWS PROVIDED BY A GWF MODEL IN THIS SIMULATION

 ADV-- ADVECTION PACKAGE, VERSION 1, 8/25/2017 INPUT READ FROM UNIT 1806


 # File generated by Flopy version 3.5.0.dev0 on 07/12/2024 at 15:45:50.
 PROCESSING ADVECTION OPTIONS
    ADVECTION WEIGHTING SCHEME HAS BEEN SET TO: TVD
 END OF ADVECTION OPTIONS
 Setting DSP Options
    XT3D formulation [0=INACTIVE, 1=ACTIVE, 3=ACTIVE RHS] set to: 0
 End Setting DSP Options

 Setting DSP Griddata
    ALH set from input file
    ATH1 set from input file
    ATV set from input file
 End Setting DSP Griddata


 CNC   -- CNC PACKAGE, VERSION 8, 2/22/2014 INPUT READ FROM UNIT 1840
 # File generated by Flopy version 3.5.0.dev0 on 07/12/2024 at 15:45:50.

 PROCESSING CNC OPTIONS
    CNC FLOWS WILL BE PRINTED TO LISTING FILE.
    FLOWS WILL BE SAVED TO BUDGET FILE SPECIFIED IN OUTPUT CONTROL
 END OF CNC OPTIONS

 PROCESSING CNC DIMENSIONS
    MAXBOUND =       7
 END OF CNC DIMENSIONS

 IC -- INITIAL CONDITIONS PACKAGE, VERSION 8, 3/28/2015 INPUT READ FROM UNIT 1804
 # File generated by Flopy version 3.5.0.dev0 on 07/12/2024 at 15:45:50.
 PROCESSING GRIDDATA

 OPENED S.ic_strt_layer1.txt
 FILE TYPE:OPEN/CLOSE   UNIT 2106   STATUS:OLD                 
 FORMAT:FORMATTED              ACCESS:SEQUENTIAL          
 ACTION:READ                


 OPENED S.ic_strt_layer2.txt
 FILE TYPE:OPEN/CLOSE   UNIT 2107   STATUS:OLD                 
 FORMAT:FORMATTED              ACCESS:SEQUENTIAL          
 ACTION:READ                


 OPENED S.ic_strt_layer3.txt
 FILE TYPE:OPEN/CLOSE   UNIT 2108   STATUS:OLD                 
 FORMAT:FORMATTED              ACCESS:SEQUENTIAL          
 ACTION:READ                


 OPENED S.ic_strt_layer4.txt
 FILE TYPE:OPEN/CLOSE   UNIT 2109   STATUS:OLD                 
 FORMAT:FORMATTED              ACCESS:SEQUENTIAL          
 ACTION:READ                


 OPENED S.ic_strt_layer5.txt
 FILE TYPE:OPEN/CLOSE   UNIT 2110   STATUS:OLD                 
 FORMAT:FORMATTED              ACCESS:SEQUENTIAL          
 ACTION:READ                


 OPENED S.ic_strt_layer6.txt
 FILE TYPE:OPEN/CLOSE   UNIT 2111   STATUS:OLD                 
 FORMAT:FORMATTED              ACCESS:SEQUENTIAL          
 ACTION:READ                


 OPENED S.ic_strt_layer7.txt
 FILE TYPE:OPEN/CLOSE   UNIT 2112   STATUS:OLD                 
 FORMAT:FORMATTED              ACCESS:SEQUENTIAL          
 ACTION:READ                


 OPENED S.ic_strt_layer8.txt
 FILE TYPE:OPEN/CLOSE   UNIT 2113   STATUS:OLD                 
 FORMAT:FORMATTED              ACCESS:SEQUENTIAL          
 ACTION:READ                


 OPENED S.ic_strt_layer9.txt
 FILE TYPE:OPEN/CLOSE   UNIT 2114   STATUS:OLD                 
 FORMAT:FORMATTED              ACCESS:SEQUENTIAL          
 ACTION:READ                


 OPENED S.ic_strt_layer10.txt
 FILE TYPE:OPEN/CLOSE   UNIT 2115   STATUS:OLD                 
 FORMAT:FORMATTED              ACCESS:SEQUENTIAL          
 ACTION:READ                

 END PROCESSING GRIDDATA

 MST -- MOBILE STORAGE AND TRANSFER PACKAGE, VERSION 1, 7/29/2020 INPUT READ FROM UNIT 1805


 # File generated by Flopy version 3.5.0.dev0 on 07/12/2024 at 15:45:50.
 PROCESSING MOBILE STORAGE AND TRANSFER OPTIONS
 END OF MOBILE STORAGE AND TRANSFER OPTIONS
 PROCESSING GRIDDATA

 OPENED S.mst_porosity.txt
 FILE TYPE:OPEN/CLOSE   UNIT 2116   STATUS:OLD                 
 FORMAT:FORMATTED              ACCESS:SEQUENTIAL          
 ACTION:READ                

 END PROCESSING GRIDDATA

 SSM -- SOURCE-SINK MIXING PACKAGE, VERSION 1, 8/25/2017 INPUT READ FROM UNIT 1838


 # File generated by Flopy version 3.5.0.dev0 on 07/12/2024 at 15:45:50.
 PROCESSING SSM OPTIONS
    SSM FLOW INFORMATION WILL BE PRINTED TO LISTING FILE WHENEVER ICBCFL IS NOT ZERO.
    CELL-BY-CELL FLOW INFORMATION WILL BE SAVED TO BINARY FILE WHENEVER ICBCFL IS NOT ZERO.
 END OF SSM OPTIONS

 OPENED S.ssm_sources.txt
 FILE TYPE:OPEN/CLOSE   UNIT 2117   STATUS:OLD                 
 FORMAT:FORMATTED              ACCESS:SEQUENTIAL          
 ACTION:READ                

 PROCESSING SOURCES
 AUX SOURCE DETECTED.
    USING AUX COLUMN 13 IN PACKAGE CHD
 END PROCESSING SOURCES
 OPTIONAL FILEINPUT BLOCK NOT FOUND.  CONTINUING.
      THE LAST TIME STEP WILL BE PRINTED
      THE LAST TIME STEP WILL BE PRINTED
 # File generated by Flopy version 3.5.0.dev0 on 07/12/2024 at 15:45:50.

 PROCESSING OC OPTIONS

    BUDGET INFORMATION WILL BE WRITTEN TO:
      UNIT NUMBER: 2118
      FILE NAME: S.cbb

 OPENED S.cbb
 FILE TYPE:DATA(BINARY)   UNIT 2118   STATUS:REPLACE             
 FORMAT:UNFORMATTED            ACCESS:STREAM              
 ACTION:READWRITE           

    CONCENTRATION INFORMATION WILL BE WRITTEN TO:
      UNIT NUMBER: 2119
      FILE NAME: S.ucn

 OPENED S.ucn
 FILE TYPE:DATA(BINARY)   UNIT 2119   STATUS:REPLACE             
 FORMAT:UNFORMATTED            ACCESS:STREAM              
 ACTION:READWRITE           

 END OF OC OPTIONS

start timestep kper="1" kstp="1" mode="normal"


 BEGIN READING OUTPUT CONTROL FOR STRESS PERIOD 1
      ALL TIME STEPS WILL BE SAVED
      ALL TIME STEPS WILL BE SAVED
      ALL TIME STEPS WILL BE PRINTED
      ALL TIME STEPS WILL BE PRINTED

 END READING OUTPUT CONTROL FOR STRESS PERIOD 1

 OPENED S.cnc_stress_period_data_1.txt
 FILE TYPE:OPEN/CLOSE   UNIT 2146   STATUS:OLD                 
 FORMAT:FORMATTED              ACCESS:SEQUENTIAL          
 ACTION:READ                

 UBDSV06 SAVING  SOURCE-SINK MIX IN MODEL S                PACKAGE S               CONNECTED TO MODEL S                PACKAGE SSM              ON UNIT   2118 AT TIME STEP      1, STRESS PERIOD      1
 UBDSV06 SAVING              CNC IN MODEL S                PACKAGE S               CONNECTED TO MODEL S                PACKAGE CNC              ON UNIT   2118 AT TIME STEP      1, STRESS PERIOD      1

 SSM PACKAGE (SSM) FLOW RATES   PERIOD      1   STEP        1
 ------------------------------------------------------------------------------------------------
   NUMBER   CELLID                   BOUND Q        SSM CONC          RATE         PACKAGE NAME  
 ------------------------------------------------------------------------------------------------
     1      (1,1,1)               2.08333361E-02  49.852151       1.0385866            CHD       
     2      (2,1,1)               2.08333361E-02  49.852151       1.0385866            CHD       
     3      (3,1,1)               2.08333361E-02  49.852151       1.0385866            CHD       
     4      (4,1,1)               0.0000000       0.0000000       0.0000000            CHD       
     5      (5,1,1)               0.0000000       0.0000000       0.0000000            CHD       
     6      (6,1,1)               0.0000000       0.0000000       0.0000000            CHD       
     7      (7,1,1)               0.0000000       0.0000000       0.0000000            CHD       
     8      (8,1,1)               0.0000000       0.0000000       0.0000000            CHD       
     9      (9,1,1)               0.0000000       0.0000000       0.0000000            CHD       
     10     (10,1,1)              0.0000000       0.0000000       0.0000000            CHD       
     11     (1,1,25)             -2.08333402E-02  7.4578817      -0.15537259           CHD       
     12     (2,1,25)             -2.08333402E-02  7.4578817      -0.15537259           CHD       
     13     (3,1,25)             -2.08333402E-02  7.4578817      -0.15537259           CHD       
     14     (4,1,25)             -2.08333403E-02  7.4578817      -0.15537259           CHD       
     15     (5,1,25)             -2.08333403E-02  7.4578817      -0.15537259           CHD       
     16     (6,1,25)             -2.08333403E-02  7.4578817      -0.15537259           CHD       
     17     (7,1,25)             -2.08333403E-02  7.4578817      -0.15537259           CHD       
     18     (8,1,25)             -2.08333403E-02  7.4578817      -0.15537259           CHD       
     19     (9,1,25)             -2.08333403E-02  7.4578817      -0.15537259           CHD       
     20     (10,1,25)            -2.08333403E-02  7.4578817      -0.15537259           CHD       
 ------------------------------------------------------------------------------------------------




 CNC PACKAGE (CNC) FLOW RATES   PERIOD      1   STEP        1
 -----------------------------------------------
   NUMBER   CELLID                    RATE      
 -----------------------------------------------
     1      (4,1,1)              -0.46954876    
     2      (5,1,1)               0.15432818    
     3      (6,1,1)               0.15494927    
     4      (7,1,1)               0.15520032    
     5      (8,1,1)               0.15530173    
     6      (9,1,1)               0.15534200    
     7      (10,1,1)              0.15535606    
 -----------------------------------------------



1
  CONCENTRATION IN LAYER   1 AT END OF TIME STEP   1 IN STRESS PERIOD    1
  ---------------------------------------------------------------------------

                1               2               3               4               5               6               7               8               9              10
               11              12              13              14              15              16              17              18              19              20
               21              22              23              24              25
 ................................................................................................................................................................
   1  12.08396574     8.258753374     7.533181589     7.464559247     7.458483243     7.457936819     7.457886824     7.457882188     7.457881779     7.457881767    
      7.457881763     7.457881741     7.457881713     7.457881703     7.457881706     7.457881711     7.457881709     7.457881703     7.457881700     7.457881702    
      7.457881707     7.457881713     7.457881719     7.457881727     7.457881730    
1
  CONCENTRATION IN LAYER   2 AT END OF TIME STEP   1 IN STRESS PERIOD    1
  ---------------------------------------------------------------------------

                1               2               3               4               5               6               7               8               9              10
               11              12              13              14              15              16              17              18              19              20
               21              22              23              24              25
 ................................................................................................................................................................
   1  11.65495105     8.159701578     7.524885902     7.463986377     7.458442273     7.457933724     7.457886574     7.457882155     7.457881782     7.457881788    
      7.457881784     7.457881745     7.457881699     7.457881683     7.457881690     7.457881698     7.457881695     7.457881686     7.457881681     7.457881684    
      7.457881693     7.457881703     7.457881713     7.457881726     7.457881729    
1
  CONCENTRATION IN LAYER   3 AT END OF TIME STEP   1 IN STRESS PERIOD    1
  ---------------------------------------------------------------------------

                1               2               3               4               5               6               7               8               9              10
               11              12              13              14              15              16              17              18              19              20
               21              22              23              24              25
 ................................................................................................................................................................
   1  10.44509968     7.950246558     7.510432798     7.463014940     7.458370354     7.457928126     7.457886112     7.457882095     7.457881786     7.457881822    
      7.457881817     7.457881751     7.457881676     7.457881653     7.457881666     7.457881680     7.457881673     7.457881658     7.457881650     7.457881656    
      7.457881671     7.457881689     7.457881704     7.457881724     7.457881729    
1
  CONCENTRATION IN LAYER   4 AT END OF TIME STEP   1 IN STRESS PERIOD    1
  ---------------------------------------------------------------------------

                1               2               3               4               5               6               7               8               9              10
               11              12              13              14              15              16              17              18              19              20
               21              22              23              24              25
 ................................................................................................................................................................
   1  7.457881730     7.656345447     7.495897461     7.461935190     7.458282202     7.457920952     7.457885508     7.457882023     7.457881789     7.457881854    
      7.457881848     7.457881757     7.457881657     7.457881628     7.457881648     7.457881667     7.457881658     7.457881637     7.457881625     7.457881633    
      7.457881653     7.457881676     7.457881696     7.457881721     7.457881729    
1
  CONCENTRATION IN LAYER   5 AT END OF TIME STEP   1 IN STRESS PERIOD    1
  ---------------------------------------------------------------------------

                1               2               3               4               5               6               7               8               9              10
               11              12              13              14              15              16              17              18              19              20
               21              22              23              24              25
 ................................................................................................................................................................
   1  7.457881730     7.538090284     7.480155582     7.460761847     7.458188928     7.457913213     7.457884847     7.457881953     7.457881789     7.457881873    
      7.457881867     7.457881761     7.457881647     7.457881615     7.457881640     7.457881662     7.457881651     7.457881626     7.457881612     7.457881620    
      7.457881642     7.457881668     7.457881690     7.457881719     7.457881729    
1
  CONCENTRATION IN LAYER   6 AT END OF TIME STEP   1 IN STRESS PERIOD    1
  ---------------------------------------------------------------------------

                1               2               3               4               5               6               7               8               9              10
               11              12              13              14              15              16              17              18              19              20
               21              22              23              24              25
 ................................................................................................................................................................
   1  7.457881730     7.490390057     7.469726440     7.459759005     7.458103317     7.457905847     7.457884205     7.457881893     7.457881787     7.457881879    
      7.457881873     7.457881764     7.457881645     7.457881613     7.457881640     7.457881663     7.457881651     7.457881624     7.457881609     7.457881617    
      7.457881639     7.457881666     7.457881688     7.457881718     7.457881729    
1
  CONCENTRATION IN LAYER   7 AT END OF TIME STEP   1 IN STRESS PERIOD    1
  ---------------------------------------------------------------------------

                1               2               3               4               5               6               7               8               9              10
               11              12              13              14              15              16              17              18              19              20
               21              22              23              24              25
 ................................................................................................................................................................
   1  7.457881730     7.471109496     7.463849642     7.459031780     7.458034092     7.457899568     7.457883645     7.457881846     7.457881782     7.457881874    
      7.457881869     7.457881764     7.457881649     7.457881618     7.457881644     7.457881667     7.457881655     7.457881628     7.457881613     7.457881621    
      7.457881642     7.457881668     7.457881688     7.457881717     7.457881729    
1
  CONCENTRATION IN LAYER   8 AT END OF TIME STEP   1 IN STRESS PERIOD    1
  ---------------------------------------------------------------------------

                1               2               3               4               5               6               7               8               9              10
               11              12              13              14              15              16              17              18              19              20
               21              22              23              24              25
 ................................................................................................................................................................
   1  7.457881730     7.463321237     7.460815046     7.458563687     7.457984201     7.457894769     7.457883207     7.457881816     7.457881777     7.457881860    
      7.457881856     7.457881761     7.457881658     7.457881629     7.457881652     7.457881673     7.457881662     7.457881638     7.457881624     7.457881631    
      7.457881649     7.457881673     7.457881692     7.457881718     7.457881729    
1
  CONCENTRATION IN LAYER   9 AT END OF TIME STEP   1 IN STRESS PERIOD    1
  ---------------------------------------------------------------------------

                1               2               3               4               5               6               7               8               9              10
               11              12              13              14              15              16              17              18              19              20
               21              22              23              24              25
 ................................................................................................................................................................
   1  7.457881730     7.460228875     7.459366471     7.458296658     7.457952804     7.457891583     7.457882914     7.457881805     7.457881769     7.457881835    
      7.457881832     7.457881756     7.457881672     7.457881647     7.457881665     7.457881682     7.457881674     7.457881655     7.457881643     7.457881648    
      7.457881663     7.457881682     7.457881698     7.457881720     7.457881729    
1
  CONCENTRATION IN LAYER  10 AT END OF TIME STEP   1 IN STRESS PERIOD    1
  ---------------------------------------------------------------------------

                1               2               3               4               5               6               7               8               9              10
               11              12              13              14              15              16              17              18              19              20
               21              22              23              24              25
 ................................................................................................................................................................
   1  7.457881730     7.459149100     7.458794595     7.458177746     7.457937823     7.457889991     7.457882777     7.457881817     7.457881758     7.457881791    
      7.457881790     7.457881748     7.457881698     7.457881681     7.457881690     7.457881700     7.457881697     7.457881686     7.457881679     7.457881681    
      7.457881689     7.457881701     7.457881710     7.457881723     7.457881729    

 CONCENTRATION WILL BE SAVED ON UNIT 2119 AT END OF TIME STEP    1, STRESS PERIOD    1


  MASS BUDGET FOR ENTIRE MODEL AT END OF TIME STEP    1, STRESS PERIOD   1
  ---------------------------------------------------------------------------------------------------

     CUMULATIVE MASS      M       RATES FOR THIS TIME STEP      M/T          PACKAGE NAME    
     ------------------                 ------------------------                     ----------------

           IN:                                      IN:
           ---                                      ---
     STORAGE-AQUEOUS =       9.9209E-06       STORAGE-AQUEOUS =       9.9209E-07     MST                              
                 CHD =          31.1576                   CHD =           3.1158     SSM_CHD                          
                 CNC =          10.8327                   CNC =           1.0833     CNC                              

            TOTAL IN =          41.9903              TOTAL IN =           4.1990

          OUT:                                     OUT:
          ----                                     ----
     STORAGE-AQUEOUS =          20.2296       STORAGE-AQUEOUS =           2.0230     MST                              
                 CHD =          15.5373                   CHD =           1.5537     SSM_CHD                          
                 CNC =           6.2234                   CNC =           0.6223     CNC                              

           TOTAL OUT =          41.9903             TOTAL OUT =           4.1990

            IN - OUT =       1.1995E-09              IN - OUT =       1.1995E-10

 PERCENT DISCREPANCY =           0.00     PERCENT DISCREPANCY =           0.00




         TIME SUMMARY AT END OF TIME STEP    1 IN STRESS PERIOD    1
                    SECONDS     MINUTES      HOURS       DAYS        YEARS
                    -----------------------------------------------------------
   TIME STEP LENGTH 8.64000E+05  14400.      240.00      10.000     2.73785E-02
 STRESS PERIOD TIME 8.64000E+05  14400.      240.00      10.000     2.73785E-02
         TOTAL TIME 8.64000E+05  14400.      240.00      10.000     2.73785E-02


end timestep


start timestep kper="1" kstp="2" mode="normal"

 UBDSV06 SAVING  SOURCE-SINK MIX IN MODEL S                PACKAGE S               CONNECTED TO MODEL S                PACKAGE SSM              ON UNIT   2118 AT TIME STEP      2, STRESS PERIOD      1
 UBDSV06 SAVING              CNC IN MODEL S                PACKAGE S               CONNECTED TO MODEL S                PACKAGE CNC              ON UNIT   2118 AT TIME STEP      2, STRESS PERIOD      1

 SSM PACKAGE (SSM) FLOW RATES   PERIOD      1   STEP        2
 ------------------------------------------------------------------------------------------------
   NUMBER   CELLID                   BOUND Q        SSM CONC          RATE         PACKAGE NAME  
 ------------------------------------------------------------------------------------------------
     1      (1,1,1)               2.08333319E-02  49.852151       1.0385864            CHD       
     2      (2,1,1)               2.08333319E-02  49.852151       1.0385864            CHD       
     3      (3,1,1)               2.08333319E-02  49.852151       1.0385864            CHD       
     4      (4,1,1)               0.0000000       0.0000000       0.0000000            CHD       
     5      (5,1,1)               0.0000000       0.0000000       0.0000000            CHD       
     6      (6,1,1)               0.0000000       0.0000000       0.0000000            CHD       
     7      (7,1,1)               0.0000000       0.0000000       0.0000000            CHD       
     8      (8,1,1)               0.0000000       0.0000000       0.0000000            CHD       
     9      (9,1,1)               0.0000000       0.0000000       0.0000000            CHD       
     10     (10,1,1)              0.0000000       0.0000000       0.0000000            CHD       
     11     (1,1,25)             -2.08333370E-02  7.4578817      -0.15537256           CHD       
     12     (2,1,25)             -2.08333370E-02  7.4578817      -0.15537256           CHD       
     13     (3,1,25)             -2.08333370E-02  7.4578817      -0.15537256           CHD       
     14     (4,1,25)             -2.08333370E-02  7.4578817      -0.15537256           CHD       
     15     (5,1,25)             -2.08333370E-02  7.4578817      -0.15537256           CHD       
     16     (6,1,25)             -2.08333370E-02  7.4578817      -0.15537256           CHD       
     17     (7,1,25)             -2.08333370E-02  7.4578817      -0.15537256           CHD       
     18     (8,1,25)             -2.08333370E-02  7.4578817      -0.15537256           CHD       
     19     (9,1,25)             -2.08333370E-02  7.4578817      -0.15537256           CHD       
     20     (10,1,25)            -2.08333370E-02  7.4578817      -0.15537256           CHD       
 ------------------------------------------------------------------------------------------------




 CNC PACKAGE (CNC) FLOW RATES   PERIOD      1   STEP        2
 -----------------------------------------------
   NUMBER   CELLID                    RATE      
 -----------------------------------------------
     1      (4,1,1)              -0.82703588    
     2      (5,1,1)               0.15221563    
     3      (6,1,1)               0.15395155    
     4      (7,1,1)               0.15473587    
     5      (8,1,1)               0.15508572    
     6      (9,1,1)               0.15523695    
     7      (10,1,1)              0.15529313    
 -----------------------------------------------



1
  CONCENTRATION IN LAYER   1 AT END OF TIME STEP   2 IN STRESS PERIOD    1
  ---------------------------------------------------------------------------

                1               2               3               4               5               6               7               8               9              10
               11              12              13              14              15              16              17              18              19              20
               21              22              23              24              25
 ................................................................................................................................................................
   1  15.31800755     9.364523307     7.709523830     7.486866387     7.461101774     7.458232814     7.457919521     7.457885768     7.457882182     7.457881805    
      7.457881754     7.457881732     7.457881711     7.457881696     7.457881689     7.457881684     7.457881678     7.457881674     7.457881673     7.457881677    
      7.457881685     7.457881695     7.457881707     7.457881722     7.457881728    
1
  CONCENTRATION IN LAYER   2 AT END OF TIME STEP   2 IN STRESS PERIOD    1
  ---------------------------------------------------------------------------

                1               2               3               4               5               6               7               8               9              10
               11              12              13              14              15              16              17              18              19              20
               21              22              23              24              25
 ................................................................................................................................................................
   1  14.40996224     9.114096753     7.682879242     7.484601543     7.460905053     7.458214994     7.457917891     7.457885637     7.457882183     7.457881803    
      7.457881745     7.457881724     7.457881705     7.457881689     7.457881676     7.457881666     7.457881658     7.457881654     7.457881655     7.457881661    
      7.457881671     7.457881685     7.457881700     7.457881720     7.457881728    
1
  CONCENTRATION IN LAYER   3 AT END OF TIME STEP   2 IN STRESS PERIOD    1
  ---------------------------------------------------------------------------

                1               2               3               4               5               6               7               8               9              10
               11              12              13              14              15              16              17              18              19              20
               21              22              23              24              25
 ................................................................................................................................................................
   1  12.14005733     8.621224849     7.637482411     7.480749554     7.460555855     7.458182449     7.457914867     7.457885387     7.457882180     7.457881799    
      7.457881730     7.457881713     7.457881698     7.457881680     7.457881657     7.457881638     7.457881626     7.457881623     7.457881627     7.457881637    
      7.457881650     7.457881668     7.457881689     7.457881717     7.457881728    
1
  CONCENTRATION IN LAYER   4 AT END OF TIME STEP   2 IN STRESS PERIOD    1
  ---------------------------------------------------------------------------

                1               2               3               4               5               6               7               8               9              10
               11              12              13              14              15              16              17              18              19              20
               21              22              23              24              25
 ................................................................................................................................................................
   1  7.457881730     7.992043040     7.590762143     7.476338792     7.460118719     7.458140200     7.457910861     7.457885035     7.457882164     7.457881796    
      7.457881719     7.457881705     7.457881693     7.457881673     7.457881642     7.457881614     7.457881598     7.457881597     7.457881603     7.457881615    
      7.457881631     7.457881653     7.457881678     7.457881713     7.457881727    
1
  CONCENTRATION IN LAYER   5 AT END OF TIME STEP   2 IN STRESS PERIOD    1
  ---------------------------------------------------------------------------

                1               2               3               4               5               6               7               8               9              10
               11              12              13              14              15              16              17              18              19              20
               21              22              23              24              25
 ................................................................................................................................................................
   1  7.457881730     7.700331300     7.540830717     7.471510170     7.459647979     7.458093921     7.457906375     7.457884619     7.457882135     7.457881793    
      7.457881715     7.457881702     7.457881692     7.457881669     7.457881633     7.457881600     7.457881582     7.457881581     7.457881588     7.457881601    
      7.457881619     7.457881643     7.457881670     7.457881709     7.457881727    
1
  CONCENTRATION IN LAYER   6 AT END OF TIME STEP   2 IN STRESS PERIOD    1
  ---------------------------------------------------------------------------

                1               2               3               4               5               6               7               8               9              10
               11              12              13              14              15              16              17              18              19              20
               21              22              23              24              25
 ................................................................................................................................................................
   1  7.457881730     7.567012341     7.505254669     7.467200375     7.459202821     7.458048953     7.457901914     7.457884187     7.457882096     7.457881790    
      7.457881715     7.457881703     7.457881692     7.457881669     7.457881631     7.457881597     7.457881578     7.457881577     7.457881584     7.457881597    
      7.457881615     7.457881639     7.457881666     7.457881707     7.457881726    
1
  CONCENTRATION IN LAYER   7 AT END OF TIME STEP   2 IN STRESS PERIOD    1
  ---------------------------------------------------------------------------

                1               2               3               4               5               6               7               8               9              10
               11              12              13              14              15              16              17              18              19              20
               21              22              23              24              25
 ................................................................................................................................................................
   1  7.457881730     7.506777148     7.483541801     7.463900940     7.458829165     7.458009651     7.457897912     7.457883785     7.457882054     7.457881787    
      7.457881718     7.457881706     7.457881694     7.457881671     7.457881635     7.457881602     7.457881584     7.457881582     7.457881588     7.457881601    
      7.457881618     7.457881641     7.457881667     7.457881707     7.457881726    
1
  CONCENTRATION IN LAYER   8 AT END OF TIME STEP   2 IN STRESS PERIOD    1
  ---------------------------------------------------------------------------

                1               2               3               4               5               6               7               8               9              10
               11              12              13              14              15              16              17              18              19              20
               21              22              23              24              25
 ................................................................................................................................................................
   1  7.457881730     7.479908335     7.471449511     7.461660235     7.458549476     7.457978870     7.457894691     7.457883449     7.457882013     7.457881782    
      7.457881721     7.457881709     7.457881698     7.457881676     7.457881644     7.457881614     7.457881597     7.457881595     7.457881600     7.457881612    
      7.457881627     7.457881648     7.457881672     7.457881708     7.457881726    
1
  CONCENTRATION IN LAYER   9 AT END OF TIME STEP   2 IN STRESS PERIOD    1
  ---------------------------------------------------------------------------

                1               2               3               4               5               6               7               8               9              10
               11              12              13              14              15              16              17              18              19              20
               21              22              23              24              25
 ................................................................................................................................................................
   1  7.457881730     7.468294054     7.465287084     7.460321819     7.458367739     7.457958035     7.457892449     7.457883198     7.457881974     7.457881780    
      7.457881729     7.457881715     7.457881701     7.457881682     7.457881655     7.457881632     7.457881618     7.457881615     7.457881619     7.457881628    
      7.457881641     7.457881659     7.457881680     7.457881711     7.457881727    
1
  CONCENTRATION IN LAYER  10 AT END OF TIME STEP   2 IN STRESS PERIOD    1
  ---------------------------------------------------------------------------

                1               2               3               4               5               6               7               8               9              10
               11              12              13              14              15              16              17              18              19              20
               21              22              23              24              25
 ................................................................................................................................................................
   1  7.457881730     7.463979514     7.462737732     7.459706667     7.458279326     7.457947604     7.457891281     7.457883032     7.457881937     7.457881790    
      7.457881754     7.457881730     7.457881702     7.457881683     7.457881670     7.457881660     7.457881650     7.457881644     7.457881643     7.457881649    
      7.457881660     7.457881675     7.457881691     7.457881714     7.457881727    

 CONCENTRATION WILL BE SAVED ON UNIT 2119 AT END OF TIME STEP    2, STRESS PERIOD    1


  MASS BUDGET FOR ENTIRE MODEL AT END OF TIME STEP    2, STRESS PERIOD   1
  ---------------------------------------------------------------------------------------------------

     CUMULATIVE MASS      M       RATES FOR THIS TIME STEP      M/T          PACKAGE NAME    
     ------------------                 ------------------------                     ----------------

           IN:                                      IN:
           ---                                      ---
     STORAGE-AQUEOUS =       1.6450E-05       STORAGE-AQUEOUS =       6.5292E-07     MST                              
                 CHD =          62.3152                   CHD =           3.1158     SSM_CHD                          
                 CNC =          21.5820                   CNC =           1.0749     CNC                              

            TOTAL IN =          83.8972              TOTAL IN =           4.1907

          OUT:                                     OUT:
          ----                                     ----
     STORAGE-AQUEOUS =          36.8448       STORAGE-AQUEOUS =           1.6615     MST                              
                 CHD =          31.0745                   CHD =           1.5537     SSM_CHD                          
                 CNC =          15.9779                   CNC =           0.9755     CNC                              

           TOTAL OUT =          83.8972             TOTAL OUT =           4.1907

            IN - OUT =       3.0033E-09              IN - OUT =       1.8037E-10

 PERCENT DISCREPANCY =           0.00     PERCENT DISCREPANCY =           0.00




         TIME SUMMARY AT END OF TIME STEP    2 IN STRESS PERIOD    1
                    SECONDS     MINUTES      HOURS       DAYS        YEARS
                    -----------------------------------------------------------
   TIME STEP LENGTH 8.64000E+05  14400.      240.00      10.000     2.73785E-02
 STRESS PERIOD TIME 1.72800E+06  28800.      480.00      20.000     5.47570E-02
         TOTAL TIME 1.72800E+06  28800.      480.00      20.000     5.47570E-02


end timestep


start timestep kper="1" kstp="3" mode="normal"

 UBDSV06 SAVING  SOURCE-SINK MIX IN MODEL S                PACKAGE S               CONNECTED TO MODEL S                PACKAGE SSM              ON UNIT   2118 AT TIME STEP      3, STRESS PERIOD      1
 UBDSV06 SAVING              CNC IN MODEL S                PACKAGE S               CONNECTED TO MODEL S                PACKAGE CNC              ON UNIT   2118 AT TIME STEP      3, STRESS PERIOD      1

 SSM PACKAGE (SSM) FLOW RATES   PERIOD      1   STEP        3
 ------------------------------------------------------------------------------------------------
   NUMBER   CELLID                   BOUND Q        SSM CONC          RATE         PACKAGE NAME  
 ------------------------------------------------------------------------------------------------
     1      (1,1,1)               2.08333325E-02  49.852151       1.0385864            CHD       
     2      (2,1,1)               2.08333325E-02  49.852151       1.0385864            CHD       
     3      (3,1,1)               2.08333325E-02  49.852151       1.0385864            CHD       
     4      (4,1,1)               0.0000000       0.0000000       0.0000000            CHD       
     5      (5,1,1)               0.0000000       0.0000000       0.0000000            CHD       
     6      (6,1,1)               0.0000000       0.0000000       0.0000000            CHD       
     7      (7,1,1)               0.0000000       0.0000000       0.0000000            CHD       
     8      (8,1,1)               0.0000000       0.0000000       0.0000000            CHD       
     9      (9,1,1)               0.0000000       0.0000000       0.0000000            CHD       
     10     (10,1,1)              0.0000000       0.0000000       0.0000000            CHD       
     11     (1,1,25)             -2.08333362E-02  7.4578817      -0.15537256           CHD       
     12     (2,1,25)             -2.08333362E-02  7.4578817      -0.15537256           CHD       
     13     (3,1,25)             -2.08333362E-02  7.4578817      -0.15537256           CHD       
     14     (4,1,25)             -2.08333362E-02  7.4578817      -0.15537256           CHD       
     15     (5,1,25)             -2.08333362E-02  7.4578817      -0.15537256           CHD       
     16     (6,1,25)             -2.08333362E-02  7.4578817      -0.15537256           CHD       
     17     (7,1,25)             -2.08333362E-02  7.4578817      -0.15537256           CHD       
     18     (8,1,25)             -2.08333362E-02  7.4578817      -0.15537256           CHD       
     19     (9,1,25)             -2.08333362E-02  7.4578817      -0.15537256           CHD       
     20     (10,1,25)            -2.08333362E-02  7.4578817      -0.15537256           CHD       
 ------------------------------------------------------------------------------------------------




 CNC PACKAGE (CNC) FLOW RATES   PERIOD      1   STEP        3
 -----------------------------------------------
   NUMBER   CELLID                    RATE      
 -----------------------------------------------
     1      (4,1,1)              -1.0541034     
     2      (5,1,1)               0.14937817    
     3      (6,1,1)               0.15245597    
     4      (7,1,1)               0.15396415    
     5      (8,1,1)               0.15468939    
     6      (9,1,1)               0.15502409    
     7      (10,1,1)              0.15515448    
 -----------------------------------------------



1
  CONCENTRATION IN LAYER   1 AT END OF TIME STEP   3 IN STRESS PERIOD    1
  ---------------------------------------------------------------------------

                1               2               3               4               5               6               7               8               9              10
               11              12              13              14              15              16              17              18              19              20
               21              22              23              24              25
 ................................................................................................................................................................
   1  16.75887907     10.50397563     7.980235784     7.532923131     7.467889961     7.459155525     7.458038485     7.457900554     7.457883970     7.457882018    
      7.457881777     7.457881731     7.457881704     7.457881683     7.457881669     7.457881660     7.457881653     7.457881649     7.457881649     7.457881654    
      7.457881664     7.457881678     7.457881695     7.457881715     7.457881726    
1
  CONCENTRATION IN LAYER   2 AT END OF TIME STEP   3 IN STRESS PERIOD    1
  ---------------------------------------------------------------------------

                1               2               3               4               5               6               7               8               9              10
               11              12              13              14              15              16              17              18              19              20
               21              22              23              24              25
 ................................................................................................................................................................
   1  16.24504255     10.09801187     7.927767664     7.527568379     7.467337531     7.459096997     7.458032290     7.457899912     7.457883908     7.457882010    
      7.457881773     7.457881727     7.457881697     7.457881673     7.457881655     7.457881644     7.457881636     7.457881632     7.457881633     7.457881639    
      7.457881651     7.457881669     7.457881688     7.457881713     7.457881726    
1
  CONCENTRATION IN LAYER   3 AT END OF TIME STEP   3 IN STRESS PERIOD    1
  ---------------------------------------------------------------------------

                1               2               3               4               5               6               7               8               9              10
               11              12              13              14              15              16              17              18              19              20
               21              22              23              24              25
 ................................................................................................................................................................
   1  13.20492415     9.329591132     7.838818825     7.518373344     7.466345614     7.458989171     7.458020744     7.457898707     7.457883789     7.457881997    
      7.457881768     7.457881721     7.457881687     7.457881656     7.457881633     7.457881618     7.457881609     7.457881605     7.457881607     7.457881616    
      7.457881631     7.457881654     7.457881678     7.457881710     7.457881725    
1
  CONCENTRATION IN LAYER   4 AT END OF TIME STEP   3 IN STRESS PERIOD    1
  ---------------------------------------------------------------------------

                1               2               3               4               5               6               7               8               9              10
               11              12              13              14              15              16              17              18              19              20
               21              22              23              24              25
 ................................................................................................................................................................
   1  7.457881730     8.392962572     7.744231881     7.507539925     7.465081265     7.458847449     7.458005341     7.457897079     7.457883627     7.457881981    
      7.457881764     7.457881717     7.457881679     7.457881642     7.457881614     7.457881595     7.457881584     7.457881581     7.457881583     7.457881594    
      7.457881612     7.457881639     7.457881668     7.457881706     7.457881724    
1
  CONCENTRATION IN LAYER   5 AT END OF TIME STEP   3 IN STRESS PERIOD    1
  ---------------------------------------------------------------------------

                1               2               3               4               5               6               7               8               9              10
               11              12              13              14              15              16              17              18              19              20
               21              22              23              24              25
 ................................................................................................................................................................
   1  7.457881730     7.918248268     7.644809194     7.495606703     7.463698358     7.458689961     7.457987943     7.457895215     7.457883437     7.457881962    
      7.457881762     7.457881715     7.457881674     7.457881635     7.457881602     7.457881581     7.457881569     7.457881565     7.457881568     7.457881579    
      7.457881600     7.457881628     7.457881660     7.457881702     7.457881724    
1
  CONCENTRATION IN LAYER   6 AT END OF TIME STEP   3 IN STRESS PERIOD    1
  ---------------------------------------------------------------------------

                1               2               3               4               5               6               7               8               9              10
               11              12              13              14              15              16              17              18              19              20
               21              22              23              24              25
 ................................................................................................................................................................
   1  7.457881730     7.681873613     7.570498321     7.484639562     7.462361008     7.458534321     7.457970454     7.457893311     7.457883237     7.457881943    
      7.457881761     7.457881716     7.457881674     7.457881633     7.457881599     7.457881577     7.457881564     7.457881560     7.457881563     7.457881574    
      7.457881595     7.457881624     7.457881656     7.457881700     7.457881723    
1
  CONCENTRATION IN LAYER   7 AT END OF TIME STEP   3 IN STRESS PERIOD    1
  ---------------------------------------------------------------------------

                1               2               3               4               5               6               7               8               9              10
               11              12              13              14              15              16              17              18              19              20
               21              22              23              24              25
 ................................................................................................................................................................
   1  7.457881730     7.566045392     7.522450550     7.475911345     7.461207146     7.458395658     7.457954572     7.457891555     7.457883049     7.457881923    
      7.457881760     7.457881718     7.457881677     7.457881636     7.457881603     7.457881582     7.457881569     7.457881564     7.457881566     7.457881577    
      7.457881597     7.457881625     7.457881657     7.457881699     7.457881723    
1
  CONCENTRATION IN LAYER   8 AT END OF TIME STEP   3 IN STRESS PERIOD    1
  ---------------------------------------------------------------------------

                1               2               3               4               5               6               7               8               9              10
               11              12              13              14              15              16              17              18              19              20
               21              22              23              24              25
 ................................................................................................................................................................
   1  7.457881730     7.510346704     7.494123048     7.469744065     7.460318912     7.458284966     7.457941637     7.457890102     7.457882888     7.457881907    
      7.457881761     7.457881720     7.457881681     7.457881643     7.457881613     7.457881593     7.457881581     7.457881576     7.457881578     7.457881587    
      7.457881605     7.457881632     7.457881661     7.457881700     7.457881723    
1
  CONCENTRATION IN LAYER   9 AT END OF TIME STEP   3 IN STRESS PERIOD    1
  ---------------------------------------------------------------------------

                1               2               3               4               5               6               7               8               9              10
               11              12              13              14              15              16              17              18              19              20
               21              22              23              24              25
 ................................................................................................................................................................
   1  7.457881730     7.484642138     7.478945390     7.465930985     7.459727680     7.458208816     7.457932575     7.457889067     7.457882770     7.457881895    
      7.457881763     7.457881724     7.457881687     7.457881653     7.457881627     7.457881610     7.457881599     7.457881594     7.457881594     7.457881602    
      7.457881618     7.457881642     7.457881668     7.457881703     7.457881723    
1
  CONCENTRATION IN LAYER  10 AT END OF TIME STEP   3 IN STRESS PERIOD    1
  ---------------------------------------------------------------------------

                1               2               3               4               5               6               7               8               9              10
               11              12              13              14              15              16              17              18              19              20
               21              22              23              24              25
 ................................................................................................................................................................
   1  7.457881730     7.474628097     7.472437558     7.464136262     7.459435276     7.458170262     7.457927921     7.457888529     7.457882710     7.457881891    
      7.457881765     7.457881728     7.457881695     7.457881666     7.457881645     7.457881631     7.457881620     7.457881614     7.457881614     7.457881621    
      7.457881634     7.457881654     7.457881676     7.457881705     7.457881724    

 CONCENTRATION WILL BE SAVED ON UNIT 2119 AT END OF TIME STEP    3, STRESS PERIOD    1


  MASS BUDGET FOR ENTIRE MODEL AT END OF TIME STEP    3, STRESS PERIOD   1
  ---------------------------------------------------------------------------------------------------

     CUMULATIVE MASS      M       RATES FOR THIS TIME STEP      M/T          PACKAGE NAME    
     ------------------                 ------------------------                     ----------------

           IN:                                      IN:
           ---                                      ---
     STORAGE-AQUEOUS =       1.9705E-05       STORAGE-AQUEOUS =       3.2552E-07     MST                              
                 CHD =          93.4728                   CHD =           3.1158     SSM_CHD                          
                 CNC =          32.2207                   CNC =           1.0639     CNC                              

            TOTAL IN =         125.6935              TOTAL IN =           4.1796

          OUT:                                     OUT:
          ----                                     ----
     STORAGE-AQUEOUS =          51.1308       STORAGE-AQUEOUS =           1.4286     MST                              
                 CHD =          46.6118                   CHD =           1.5537     SSM_CHD                          
                 CNC =          27.9509                   CNC =           1.1973     CNC                              

           TOTAL OUT =         125.6935             TOTAL OUT =           4.1796

            IN - OUT =       6.2863E-09              IN - OUT =       3.2830E-10

 PERCENT DISCREPANCY =           0.00     PERCENT DISCREPANCY =           0.00




         TIME SUMMARY AT END OF TIME STEP    3 IN STRESS PERIOD    1
                    SECONDS     MINUTES      HOURS       DAYS        YEARS
                    -----------------------------------------------------------
   TIME STEP LENGTH 8.64000E+05  14400.      240.00      10.000     2.73785E-02
 STRESS PERIOD TIME 2.59200E+06  43200.      720.00      30.000     8.21355E-02
         TOTAL TIME 2.59200E+06  43200.      720.00      30.000     8.21355E-02


end timestep


start timestep kper="1" kstp="4" mode="normal"

 UBDSV06 SAVING  SOURCE-SINK MIX IN MODEL S                PACKAGE S               CONNECTED TO MODEL S                PACKAGE SSM              ON UNIT   2118 AT TIME STEP      4, STRESS PERIOD      1
 UBDSV06 SAVING              CNC IN MODEL S                PACKAGE S               CONNECTED TO MODEL S                PACKAGE CNC              ON UNIT   2118 AT TIME STEP      4, STRESS PERIOD      1

 SSM PACKAGE (SSM) FLOW RATES   PERIOD      1   STEP        4
 ------------------------------------------------------------------------------------------------
   NUMBER   CELLID                   BOUND Q        SSM CONC          RATE         PACKAGE NAME  
 ------------------------------------------------------------------------------------------------
     1      (1,1,1)               2.08333321E-02  49.852151       1.0385864            CHD       
     2      (2,1,1)               2.08333321E-02  49.852151       1.0385864            CHD       
     3      (3,1,1)               2.08333321E-02  49.852151       1.0385864            CHD       
     4      (4,1,1)               0.0000000       0.0000000       0.0000000            CHD       
     5      (5,1,1)               0.0000000       0.0000000       0.0000000            CHD       
     6      (6,1,1)               0.0000000       0.0000000       0.0000000            CHD       
     7      (7,1,1)               0.0000000       0.0000000       0.0000000            CHD       
     8      (8,1,1)               0.0000000       0.0000000       0.0000000            CHD       
     9      (9,1,1)               0.0000000       0.0000000       0.0000000            CHD       
     10     (10,1,1)              0.0000000       0.0000000       0.0000000            CHD       
     11     (1,1,25)             -2.08333356E-02  7.4578817      -0.15537255           CHD       
     12     (2,1,25)             -2.08333356E-02  7.4578817      -0.15537255           CHD       
     13     (3,1,25)             -2.08333356E-02  7.4578817      -0.15537255           CHD       
     14     (4,1,25)             -2.08333356E-02  7.4578817      -0.15537255           CHD       
     15     (5,1,25)             -2.08333356E-02  7.4578817      -0.15537255           CHD       
     16     (6,1,25)             -2.08333356E-02  7.4578817      -0.15537255           CHD       
     17     (7,1,25)             -2.08333356E-02  7.4578817      -0.15537255           CHD       
     18     (8,1,25)             -2.08333356E-02  7.4578817      -0.15537255           CHD       
     19     (9,1,25)             -2.08333356E-02  7.4578817      -0.15537255           CHD       
     20     (10,1,25)            -2.08333356E-02  7.4578817      -0.15537255           CHD       
 ------------------------------------------------------------------------------------------------




 CNC PACKAGE (CNC) FLOW RATES   PERIOD      1   STEP        4
 -----------------------------------------------
   NUMBER   CELLID                    RATE      
 -----------------------------------------------
     1      (4,1,1)              -1.1953540     
     2      (5,1,1)               0.14622109    
     3      (6,1,1)               0.15064113    
     4      (7,1,1)               0.15294557    
     5      (8,1,1)               0.15412065    
     6      (9,1,1)               0.15469156    
     7      (10,1,1)              0.15492240    
 -----------------------------------------------



1
  CONCENTRATION IN LAYER   1 AT END OF TIME STEP   4 IN STRESS PERIOD    1
  ---------------------------------------------------------------------------

                1               2               3               4               5               6               7               8               9              10
               11              12              13              14              15              16              17              18              19              20
               21              22              23              24              25
 ................................................................................................................................................................
   1  16.72256408     11.49851215     8.319357930     7.607983002     7.481448317     7.461330963     7.458361328     7.457945900     7.457890087     7.457882815    
      7.457881875     7.457881738     7.457881698     7.457881673     7.457881654     7.457881641     7.457881632     7.457881627     7.457881628     7.457881634    
      7.457881646     7.457881663     7.457881683     7.457881708     7.457881723    
1
  CONCENTRATION IN LAYER   2 AT END OF TIME STEP   4 IN STRESS PERIOD    1
  ---------------------------------------------------------------------------

                1               2               3               4               5               6               7               8               9              10
               11              12              13              14              15              16              17              18              19              20
               21              22              23              24              25
 ................................................................................................................................................................
   1  16.75955288     10.97486829     8.237510869     7.598120626     7.480261924     7.461186390     7.458343990     7.457943878     7.457889860     7.457882788    
      7.457881868     7.457881731     7.457881690     7.457881663     7.457881642     7.457881627     7.457881617     7.457881612     7.457881614     7.457881621    
      7.457881635     7.457881655     7.457881678     7.457881706     7.457881723    
1
  CONCENTRATION IN LAYER   3 AT END OF TIME STEP   4 IN STRESS PERIOD    1
  ---------------------------------------------------------------------------

                1               2               3               4               5               6               7               8               9              10
               11              12              13              14              15              16              17              18              19              20
               21              22              23              24              25
 ................................................................................................................................................................
   1  13.85744691     9.986150993     8.098518604     7.581015120     7.478110662     7.460918204     7.458311528     7.457940073     7.457889431     7.457882739    
      7.457881856     7.457881721     7.457881678     7.457881649     7.457881624     7.457881605     7.457881593     7.457881588     7.457881591     7.457881601    
      7.457881618     7.457881642     7.457881669     7.457881702     7.457881722    
1
  CONCENTRATION IN LAYER   4 AT END OF TIME STEP   4 IN STRESS PERIOD    1
  ---------------------------------------------------------------------------

                1               2               3               4               5               6               7               8               9              10
               11              12              13              14              15              16              17              18              19              20
               21              22              23              24              25
 ................................................................................................................................................................
   1  7.457881730     8.800641995     7.945924198     7.560373847     7.475328606     7.460562251     7.458267934     7.457934925     7.457888846     7.457882673    
      7.457881843     7.457881713     7.457881668     7.457881636     7.457881607     7.457881585     7.457881570     7.457881566     7.457881569     7.457881581    
      7.457881601     7.457881628     7.457881659     7.457881698     7.457881721    
1
  CONCENTRATION IN LAYER   5 AT END OF TIME STEP   4 IN STRESS PERIOD    1
  ---------------------------------------------------------------------------

                1               2               3               4               5               6               7               8               9              10
               11              12              13              14              15              16              17              18              19              20
               21              22              23              24              25
 ................................................................................................................................................................
   1  7.457881730     8.160712022     7.787502504     7.537502519     7.472245263     7.460162117     7.458218283     7.457929004     7.457888166     7.457882597    
      7.457881832     7.457881708     7.457881663     7.457881628     7.457881596     7.457881571     7.457881555     7.457881550     7.457881555     7.457881567    
      7.457881589     7.457881619     7.457881652     7.457881695     7.457881720    
1
  CONCENTRATION IN LAYER   6 AT END OF TIME STEP   4 IN STRESS PERIOD    1
  ---------------------------------------------------------------------------

                1               2               3               4               5               6               7               8               9              10
               11              12              13              14              15              16              17              18              19              20
               21              22              23              24              25
 ................................................................................................................................................................
   1  7.457881730     7.821253143     7.664977911     7.516035091     7.469211732     7.459761354     7.458167889     7.457922930     7.457887461     7.457882518    
      7.457881823     7.457881707     7.457881662     7.457881626     7.457881593     7.457881567     7.457881550     7.457881545     7.457881549     7.457881562    
      7.457881584     7.457881614     7.457881648     7.457881692     7.457881720    
1
  CONCENTRATION IN LAYER   7 AT END OF TIME STEP   4 IN STRESS PERIOD    1
  ---------------------------------------------------------------------------

                1               2               3               4               5               6               7               8               9              10
               11              12              13              14              15              16              17              18              19              20
               21              22              23              24              25
 ................................................................................................................................................................
   1  7.457881730     7.644272399     7.582231757     7.498452336     7.466539826     7.459399040     7.458121665     7.457917297     7.457886800     7.457882444    
      7.457881817     7.457881708     7.457881664     7.457881628     7.457881596     7.457881570     7.457881554     7.457881548     7.457881551     7.457881564    
      7.457881585     7.457881615     7.457881648     7.457881692     7.457881719    
1
  CONCENTRATION IN LAYER   8 AT END OF TIME STEP   4 IN STRESS PERIOD    1
  ---------------------------------------------------------------------------

                1               2               3               4               5               6               7               8               9              10
               11              12              13              14              15              16              17              18              19              20
               21              22              23              24              25
 ................................................................................................................................................................
   1  7.457881730     7.554026229     7.531248702     7.485651007     7.464439459     7.459105650     7.458083661     7.457912616     7.457886245     7.457882381    
      7.457881813     7.457881712     7.457881669     7.457881635     7.457881604     7.457881580     7.457881564     7.457881558     7.457881561     7.457881572    
      7.457881592     7.457881620     7.457881651     7.457881693     7.457881719    
1
  CONCENTRATION IN LAYER   9 AT END OF TIME STEP   4 IN STRESS PERIOD    1
  ---------------------------------------------------------------------------

                1               2               3               4               5               6               7               8               9              10
               11              12              13              14              15              16              17              18              19              20
               21              22              23              24              25
 ................................................................................................................................................................
   1  7.457881730     7.510179776     7.502843619     7.477526511     7.463016079     7.458901348     7.458056829     7.457909280     7.457885844     7.457882336    
      7.457881813     7.457881718     7.457881676     7.457881644     7.457881616     7.457881594     7.457881579     7.457881573     7.457881575     7.457881585    
      7.457881603     7.457881628     7.457881657     7.457881694     7.457881720    
1
  CONCENTRATION IN LAYER  10 AT END OF TIME STEP   4 IN STRESS PERIOD    1
  ---------------------------------------------------------------------------

                1               2               3               4               5               6               7               8               9              10
               11              12              13              14              15              16              17              18              19              20
               21              22              23              24              25
 ................................................................................................................................................................
   1  7.457881730     7.492451560     7.490319544     7.473633489     7.462303542     7.458797078     7.458042993     7.457907546     7.457885634     7.457882315    
      7.457881817     7.457881726     7.457881686     7.457881655     7.457881629     7.457881610     7.457881596     7.457881590     7.457881591     7.457881599    
      7.457881614     7.457881637     7.457881663     7.457881696     7.457881720    

 CONCENTRATION WILL BE SAVED ON UNIT 2119 AT END OF TIME STEP    4, STRESS PERIOD    1


  MASS BUDGET FOR ENTIRE MODEL AT END OF TIME STEP    4, STRESS PERIOD   1
  ---------------------------------------------------------------------------------------------------

     CUMULATIVE MASS      M       RATES FOR THIS TIME STEP      M/T          PACKAGE NAME    
     ------------------                 ------------------------                     ----------------

           IN:                                      IN:
           ---                                      ---
     STORAGE-AQUEOUS =       2.1991E-05       STORAGE-AQUEOUS =       2.2858E-07     MST                              
                 CHD =         124.6304                   CHD =           3.1158     SSM_CHD                          
                 CNC =          42.7350                   CNC =           1.0514     CNC                              

            TOTAL IN =         167.3654              TOTAL IN =           4.1672

          OUT:                                     OUT:
          ----                                     ----
     STORAGE-AQUEOUS =          63.9330       STORAGE-AQUEOUS =           1.2802     MST                              
                 CHD =          62.1490                   CHD =           1.5537     SSM_CHD                          
                 CNC =          41.2833                   CNC =           1.3332     CNC                              

           TOTAL OUT =         167.3654             TOTAL OUT =           4.1672

            IN - OUT =       7.0825E-09              IN - OUT =       7.9612E-11

 PERCENT DISCREPANCY =           0.00     PERCENT DISCREPANCY =           0.00




         TIME SUMMARY AT END OF TIME STEP    4 IN STRESS PERIOD    1
                    SECONDS     MINUTES      HOURS       DAYS        YEARS
                    -----------------------------------------------------------
   TIME STEP LENGTH 8.64000E+05  14400.      240.00      10.000     2.73785E-02
 STRESS PERIOD TIME 3.45600E+06  57600.      960.00      40.000     0.10951    
         TOTAL TIME 3.45600E+06  57600.      960.00      40.000     0.10951    


end timestep


start timestep kper="1" kstp="5" mode="normal"

 UBDSV06 SAVING  SOURCE-SINK MIX IN MODEL S                PACKAGE S               CONNECTED TO MODEL S                PACKAGE SSM              ON UNIT   2118 AT TIME STEP      5, STRESS PERIOD      1
 UBDSV06 SAVING              CNC IN MODEL S                PACKAGE S               CONNECTED TO MODEL S                PACKAGE CNC              ON UNIT   2118 AT TIME STEP      5, STRESS PERIOD      1

 SSM PACKAGE (SSM) FLOW RATES   PERIOD      1   STEP        5
 ------------------------------------------------------------------------------------------------
   NUMBER   CELLID                   BOUND Q        SSM CONC          RATE         PACKAGE NAME  
 ------------------------------------------------------------------------------------------------
     1      (1,1,1)               2.08333321E-02  49.852151       1.0385864            CHD       
     2      (2,1,1)               2.08333321E-02  49.852151       1.0385864            CHD       
     3      (3,1,1)               2.08333321E-02  49.852151       1.0385864            CHD       
     4      (4,1,1)               0.0000000       0.0000000       0.0000000            CHD       
     5      (5,1,1)               0.0000000       0.0000000       0.0000000            CHD       
     6      (6,1,1)               0.0000000       0.0000000       0.0000000            CHD       
     7      (7,1,1)               0.0000000       0.0000000       0.0000000            CHD       
     8      (8,1,1)               0.0000000       0.0000000       0.0000000            CHD       
     9      (9,1,1)               0.0000000       0.0000000       0.0000000            CHD       
     10     (10,1,1)              0.0000000       0.0000000       0.0000000            CHD       
     11     (1,1,25)             -2.08333353E-02  7.4578817      -0.15537255           CHD       
     12     (2,1,25)             -2.08333353E-02  7.4578817      -0.15537255           CHD       
[...]
               21              22              23              24              25
 ................................................................................................................................................................
   1  7.457881730     8.199158776     9.274053799     10.10366863     10.59347679     10.85273814     10.98456149     11.05072180     11.08376942     11.10014772    
      11.10797299     11.11092884     11.11066399     11.10844482     11.10345997     11.09490323     11.08151659     11.06156227     11.03286680     10.99290099    
      10.93893510     10.86834153     10.77928174     10.67265199     10.55876237    

 CONCENTRATION WILL BE SAVED ON UNIT 2119 AT END OF TIME STEP  199, STRESS PERIOD    1


  MASS BUDGET FOR ENTIRE MODEL AT END OF TIME STEP  199, STRESS PERIOD   1
  ---------------------------------------------------------------------------------------------------

     CUMULATIVE MASS      M       RATES FOR THIS TIME STEP      M/T          PACKAGE NAME    
     ------------------                 ------------------------                     ----------------

           IN:                                      IN:
           ---                                      ---
     STORAGE-AQUEOUS =          55.9106       STORAGE-AQUEOUS =       6.0778E-10     MST                              
                 CHD =        6200.3611                   CHD =           3.1158     SSM_CHD                          
                 CNC =        1836.8101                   CNC =           0.9145     CNC                              

            TOTAL IN =        8093.0818              TOTAL IN =           4.0303

          OUT:                                     OUT:
          ----                                     ----
     STORAGE-AQUEOUS =        1308.2726       STORAGE-AQUEOUS =           0.1163     MST                              
                 CHD =        3412.6639                   CHD =           2.1997     SSM_CHD                          
                 CNC =        3372.1453                   CNC =           1.7143     CNC                              

           TOTAL OUT =        8093.0818             TOTAL OUT =           4.0303

            IN - OUT =      -1.9396E-06              IN - OUT =      -6.9132E-09

 PERCENT DISCREPANCY =          -0.00     PERCENT DISCREPANCY =          -0.00




         TIME SUMMARY AT END OF TIME STEP  199 IN STRESS PERIOD    1
                    SECONDS     MINUTES      HOURS       DAYS        YEARS
                    -----------------------------------------------------------
   TIME STEP LENGTH 8.64000E+05  14400.      240.00      10.000     2.73785E-02
 STRESS PERIOD TIME 1.71936E+08 2.86560E+06  47760.      1990.0      5.4483    
         TOTAL TIME 1.71936E+08 2.86560E+06  47760.      1990.0      5.4483    


end timestep


start timestep kper="1" kstp="200" mode="normal"

 UBDSV06 SAVING  SOURCE-SINK MIX IN MODEL S                PACKAGE S               CONNECTED TO MODEL S                PACKAGE SSM              ON UNIT   2118 AT TIME STEP    200, STRESS PERIOD      1
 UBDSV06 SAVING              CNC IN MODEL S                PACKAGE S               CONNECTED TO MODEL S                PACKAGE CNC              ON UNIT   2118 AT TIME STEP    200, STRESS PERIOD      1

 SSM PACKAGE (SSM) FLOW RATES   PERIOD      1   STEP      200
 ------------------------------------------------------------------------------------------------
   NUMBER   CELLID                   BOUND Q        SSM CONC          RATE         PACKAGE NAME  
 ------------------------------------------------------------------------------------------------
     1      (1,1,1)               2.08333330E-02  49.852151       1.0385865            CHD       
     2      (2,1,1)               2.08333330E-02  49.852151       1.0385865            CHD       
     3      (3,1,1)               2.08333330E-02  49.852151       1.0385865            CHD       
     4      (4,1,1)               0.0000000       0.0000000       0.0000000            CHD       
     5      (5,1,1)               0.0000000       0.0000000       0.0000000            CHD       
     6      (6,1,1)               0.0000000       0.0000000       0.0000000            CHD       
     7      (7,1,1)               0.0000000       0.0000000       0.0000000            CHD       
     8      (8,1,1)               0.0000000       0.0000000       0.0000000            CHD       
     9      (9,1,1)               0.0000000       0.0000000       0.0000000            CHD       
     10     (10,1,1)              0.0000000       0.0000000       0.0000000            CHD       
     11     (1,1,25)             -2.08333337E-02  10.577584      -0.22036633           CHD       
     12     (2,1,25)             -2.08333337E-02  10.577584      -0.22036633           CHD       
     13     (3,1,25)             -2.08333337E-02  10.577584      -0.22036633           CHD       
     14     (4,1,25)             -2.08333337E-02  10.577584      -0.22036633           CHD       
     15     (5,1,25)             -2.08333337E-02  10.577584      -0.22036633           CHD       
     16     (6,1,25)             -2.08333337E-02  10.577584      -0.22036633           CHD       
     17     (7,1,25)             -2.08333337E-02  10.577584      -0.22036633           CHD       
     18     (8,1,25)             -2.08333337E-02  10.577583      -0.22036633           CHD       
     19     (9,1,25)             -2.08333337E-02  10.577583      -0.22036632           CHD       
     20     (10,1,25)            -2.08333337E-02  10.577583      -0.22036632           CHD       
 ------------------------------------------------------------------------------------------------




 CNC PACKAGE (CNC) FLOW RATES   PERIOD      1   STEP      200
 -----------------------------------------------
   NUMBER   CELLID                    RATE      
 -----------------------------------------------
     1      (4,1,1)              -1.6151602     
     2      (5,1,1)               0.11736323    
     3      (6,1,1)               0.12928203    
     4      (7,1,1)               0.13692894    
     5      (8,1,1)               0.14169424    
     6      (9,1,1)               0.14445553    
     7      (10,1,1)              0.14572049    
 -----------------------------------------------



1
  CONCENTRATION IN LAYER   1 AT END OF TIME STEP 200 IN STRESS PERIOD    1
  ---------------------------------------------------------------------------

                1               2               3               4               5               6               7               8               9              10
               11              12              13              14              15              16              17              18              19              20
               21              22              23              24              25
 ................................................................................................................................................................
   1  22.91715447     16.72535910     13.48979141     12.21210374     11.65079220     11.38222770     11.24946406     11.18320825     11.15002863     11.13328751    
      11.12454004     11.11935215     11.11532699     11.11099077     11.10513008     11.09645422     11.08344031     11.06425019     11.03669655     10.99827280    
      10.94627616     10.87808911     10.79184577     10.68834172     10.57758380    
1
  CONCENTRATION IN LAYER   2 AT END OF TIME STEP 200 IN STRESS PERIOD    1
  ---------------------------------------------------------------------------

                1               2               3               4               5               6               7               8               9              10
               11              12              13              14              15              16              17              18              19              20
               21              22              23              24              25
 ................................................................................................................................................................
   1  20.61064204     15.70890657     13.16477806     12.09216091     11.59719768     11.35616466     11.23649614     11.17672631     11.14678672     11.13166639    
      11.12372867     11.11894166     11.11511842     11.11088743     11.10508114     11.09643200     11.08343047     11.06424587     11.03669464     10.99827195    
      10.94627577     10.87808893     10.79184569     10.68834168     10.57758378    
1
  CONCENTRATION IN LAYER   3 AT END OF TIME STEP 200 IN STRESS PERIOD    1
  ---------------------------------------------------------------------------

                1               2               3               4               5               6               7               8               9              10
               11              12              13              14              15              16              17              18              19              20
               21              22              23              24              25
 ................................................................................................................................................................
   1  15.68633721     13.88744587     12.58541545     11.87043627     11.49589448     11.30662626     11.21182892     11.16439621     11.14062006     11.12858288    
      11.12218555     11.11816056     11.11472136     11.11069091     11.10498821     11.09638984     11.08341180     11.06423765     11.03669100     10.99827032    
      10.94627503     10.87808859     10.79184554     10.68834161     10.57758375    
1
  CONCENTRATION IN LAYER   4 AT END OF TIME STEP 200 IN STRESS PERIOD    1
  ---------------------------------------------------------------------------

                1               2               3               4               5               6               7               8               9              10
               11              12              13              14              15              16              17              18              19              20
               21              22              23              24              25
 ................................................................................................................................................................
   1  7.457881730     11.77950949     11.86853814     11.57751146     11.35756304     11.23851380     11.17787709     11.14742385     11.13213201     11.12433892    
      11.12006226     11.11708479     11.11417407     11.11042040     11.10486065     11.09633204     11.08338618     11.06422636     11.03668600     10.99826808    
      10.94627401     10.87808812     10.79184532     10.68834151     10.57758370    
1
  CONCENTRATION IN LAYER   5 AT END OF TIME STEP 200 IN STRESS PERIOD    1
  ---------------------------------------------------------------------------

                1               2               3               4               5               6               7               8               9              10
               11              12              13              14              15              16              17              18              19              20
               21              22              23              24              25
 ................................................................................................................................................................
   1  7.457881730     10.37699648     11.17559399     11.23851441     11.19573368     11.15855256     11.13796598     11.12746967     11.12215316     11.11935022    
      11.11756805     11.11581922     11.11352845     11.11010205     11.10471120     11.09626447     11.08335619     11.06421311     11.03668012     10.99826544    
      10.94627282     10.87808757     10.79184506     10.68834139     10.57758364    
1
  CONCENTRATION IN LAYER   6 AT END OF TIME STEP 200 IN STRESS PERIOD    1
  ---------------------------------------------------------------------------

                1               2               3               4               5               6               7               8               9              10
               11              12              13              14              15              16              17              18              19              20
               21              22              23              24              25
 ................................................................................................................................................................
   1  7.457881730     9.461632454     10.55161675     10.90658325     11.02728708     11.07450049     11.09599605     11.10648628     11.11166018     11.11410609    
      11.11495171     11.11448684     11.11284359     11.10976589     11.10455477     11.09619393     11.08332482     11.06419921     11.03667393     10.99826267    
      10.94627156     10.87808699     10.79184480     10.68834127     10.57758358    
1
  CONCENTRATION IN LAYER   7 AT END OF TIME STEP 200 IN STRESS PERIOD    1
  ---------------------------------------------------------------------------

                1               2               3               4               5               6               7               8               9              10
               11              12              13              14              15              16              17              18              19              20
               21              22              23              24              25
 ................................................................................................................................................................
   1  7.457881730     8.874350017     10.03875699     10.60702108     10.86989046     10.99486056     11.05609205     11.08652757     11.10167992     11.10911709    
      11.11247648     11.11323258     11.11216981     11.10944255     11.10440676     11.09612742     11.08329516     11.06418601     11.03666806     10.99826003    
      10.94627036     10.87808644     10.79184454     10.68834115     10.57758352    
1
  CONCENTRATION IN LAYER   8 AT END OF TIME STEP 200 IN STRESS PERIOD    1
  ---------------------------------------------------------------------------

                1               2               3               4               5               6               7               8               9              10
               11              12              13              14              15              16              17              18              19              20
               21              22              23              24              25
 ................................................................................................................................................................
   1  7.457881730     8.508374689     9.653879471     10.36315641     10.73789681     10.92734088     11.02216004     11.06954810     11.09318953     11.10487282    
      11.11036532     11.11219854     11.11157256     11.10916318     11.10428157     11.09607137     11.08327006     11.06417481     11.03666306     10.99825779    
      10.94626934     10.87808598     10.79184433     10.68834105     10.57758347    
1
  CONCENTRATION IN LAYER   9 AT END OF TIME STEP 200 IN STRESS PERIOD    1
  ---------------------------------------------------------------------------

                1               2               3               4               5               6               7               8               9              10
               11              12              13              14              15              16              17              18              19              20
               21              22              23              24              25
 ................................................................................................................................................................
   1  7.457881730     8.296307579     9.399824116     10.19184278     10.64302205     10.87841581     10.99751560     11.05721090     11.08702052     11.10178904    
      11.10882991     11.11145964     11.11112915     11.10895809     11.10419106     11.09603097     11.08325192     11.06416669     11.03665943     10.99825615    
      10.94626861     10.87808564     10.79184417     10.68834098     10.57758343    
1
  CONCENTRATION IN LAYER  10 AT END OF TIME STEP 200 IN STRESS PERIOD    1
  ---------------------------------------------------------------------------

                1               2               3               4               5               6               7               8               9              10
               11              12              13              14              15              16              17              18              19              20
               21              22              23              24              25
 ................................................................................................................................................................
   1  7.457881730     8.199158777     9.274053806     10.10366866     10.59347689     10.85273844     10.98456244     11.05072461     11.08377716     11.10016775    
      11.10802235     11.11107438     11.11089336     11.10884978     11.10414365     11.09600984     11.08324241     11.06416242     11.03665752     10.99825530    
      10.94626822     10.87808546     10.79184409     10.68834095     10.57758341    

 CONCENTRATION WILL BE SAVED ON UNIT 2119 AT END OF TIME STEP  200, STRESS PERIOD    1


  MASS BUDGET FOR ENTIRE MODEL AT END OF TIME STEP  200, STRESS PERIOD   1
  ---------------------------------------------------------------------------------------------------

     CUMULATIVE MASS      M       RATES FOR THIS TIME STEP      M/T          PACKAGE NAME    
     ------------------                 ------------------------                     ----------------

           IN:                                      IN:
           ---                                      ---
     STORAGE-AQUEOUS =          55.9106       STORAGE-AQUEOUS =       9.5262E-10     MST                              
                 CHD =        6231.5187                   CHD =           3.1158     SSM_CHD                          
                 CNC =        1845.9555                   CNC =           0.9145     CNC                              

            TOTAL IN =        8133.3848              TOTAL IN =           4.0303

          OUT:                                     OUT:
          ----                                     ----
     STORAGE-AQUEOUS =        1309.3964       STORAGE-AQUEOUS =           0.1124     MST                              
                 CHD =        3434.7005                   CHD =           2.2037     SSM_CHD                          
                 CNC =        3389.2880                   CNC =           1.7143     CNC                              

           TOTAL OUT =        8133.3848             TOTAL OUT =           4.0303

            IN - OUT =      -2.0076E-06              IN - OUT =      -6.7951E-09

 PERCENT DISCREPANCY =          -0.00     PERCENT DISCREPANCY =          -0.00




         TIME SUMMARY AT END OF TIME STEP  200 IN STRESS PERIOD    1
                    SECONDS     MINUTES      HOURS       DAYS        YEARS
                    -----------------------------------------------------------
   TIME STEP LENGTH 8.64000E+05  14400.      240.00      10.000     2.73785E-02
 STRESS PERIOD TIME 1.72800E+08 2.88000E+06  48000.      2000.0      5.4757    
         TOTAL TIME 1.72800E+08 2.88000E+06  48000.      2000.0      5.4757    


end timestep

