                                   MODFLOW 6
                U.S. GEOLOGICAL SURVEY MODULAR HYDROLOGIC MODEL
                       GROUNDWATER TRANSPORT MODEL (GWT)
                VERSION 6.5.0.dev0+prt (preliminary) 10/07/2023
                               ***DEVELOP MODE***

   MODFLOW 6 compiled Oct 07 2023 02:19:02 with Intel(R) Fortran Intel(R) 64
   Compiler Classic for applications running on Intel(R) 64, Version 2021.7.0
                             Build 20220726_000000

This software is preliminary or provisional and is subject to 
revision. It is being provided to meet the need for timely best 
science. The software has not received final approval by the U.S. 
Geological Survey (USGS). No warranty, expressed or implied, is made 
by the USGS or the U.S. Government as to the functionality of the 
software and related material nor shall the fact of release 
constitute any such warranty. The software is provided on the 
condition that neither the USGS nor the U.S. Government shall be held 
liable for any damages resulting from the authorized or unauthorized 
use of the software.


As a work of the United States Government, this USGS product is 
in the public domain within the United States. You can copy, 
modify, distribute, and perform the work, even for commercial 
purposes, all without asking permission. Additionally, USGS 
waives copyright and related rights in the work worldwide 
through CC0 1.0 Universal Public Domain Dedication 
(https://creativecommons.org/publicdomain/zero/1.0/).

The following GNU Lesser General Public License (LGPL) libraries
are used in this USGS product:

    SPARSKIT version 2.0
      ilut, luson, and qsplit 
      (https://www-users.cse.umn.edu/~saad/software/SPARSKIT/)

    RCM - Reverse Cuthill McKee Ordering
      (https://people.math.sc.edu/Burkardt/f_src/rcm/rcm.html)

    BLAS - Basic Linear Algebra Subprograms Level 1
      (https://people.math.sc.edu/Burkardt/f_src/blas1_d/blas1_d.html)

    SPARSEKIT - Sparse Matrix Utility Package
      amux, dperm, dvperm, rperm, and cperm
      (https://people.sc.fsu.edu/~jburkardt/f77_src/sparsekit/sparsekit.html)

The following BSD-3 License libraries are used in this USGS product:

    Modern Fortran DAG Library
      Copyright (c) 2018, Jacob Williams
      All rights reserved.
      (https://github.com/jacobwilliams/daglib)

MODFLOW 6 compiler options: /Isrc\libmf6core.a.p /Isrc /I..\src
/Isrc\libmf6_external.a.p /MTd /nologo /warn:general /warn:truncated_source
/stand:f08 /Zi /traceback /O2 /fpe:0 /heap-arrays:0 /traceback /fpp
/Qdiag-disable:7416 /Qdiag-disable:7025 /Qdiag-disable:5268
/Fdsrc\libmf6core.a.p\Utilities_compilerversion.F90.pdb
/module:src\libmf6core.a.p
/Fosrc/libmf6core.a.p/Utilities_compilerversion.F90.obj /c

System command used to initiate simulation:
c:\Users\portega\anaconda3\envs\mf6rtm\python.exe -m ipykernel_launcher --f=c:\Users\portega\AppData\Roaming\jupyter\runtime\kernel-v2-17404NqyrdJ157y2B.json

MODFLOW was compiled using uniform precision.

Real Variables
  KIND: 8
  TINY (smallest non-zero value):    2.225074-308
  HUGE (largest value):    1.797693+308
  PRECISION: 15
  SIZE IN BITS: 64

Integer Variables
  KIND: 4
  HUGE (largest value): 2147483647
  SIZE IN BITS: 32

Long Integer Variables
  KIND: 8
  HUGE (largest value): 9223372036854775807
  SIZE IN BITS: 64

Logical Variables
  KIND: 4
  SIZE IN BITS: 32
 
 NAMEFILE OPTIONS:
 END NAMEFILE OPTIONS:

 DIS -- STRUCTURED GRID DISCRETIZATION PACKAGE, VERSION 2 : 3/27/2014 - INPUT READ FROM MEMPATH: __INPUT__/S/DIS                                   


 DSP-- DISPERSION PACKAGE, VERSION 1, 1/24/2018 INPUT READ FROM MEMPATH: __INPUT__/S/DSP                                   


 Setting Discretization Options
    Model length unit [0=UND, 1=FEET, 2=METERS, 3=CENTIMETERS] set as 2
 End Setting Discretization Options

 Setting Discretization Dimensions
    NLAY = 10
    NROW = 1
    NCOL = 25
 End Setting Discretization Dimensions

 Setting Discretization Griddata
    DELR set from input file
    DELC set from input file
    TOP set from input file
    BOTM set from input file
    IDOMAIN set from input file
 End Setting Discretization Griddata


 FMI -- FLOW MODEL INTERFACE,' VERSION 2, 8/17/2023
  FLOWS PROVIDED BY A GWF MODEL IN THIS SIMULATION

 ADV-- ADVECTION PACKAGE, VERSION 1, 8/25/2017 INPUT READ FROM UNIT 1806


 # File generated by Flopy version 3.5.0.dev0 on 07/12/2024 at 11:54:48.
 PROCESSING ADVECTION OPTIONS
    ADVECTION WEIGHTING SCHEME HAS BEEN SET TO: TVD
 END OF ADVECTION OPTIONS
 Setting DSP Options
    XT3D formulation [0=INACTIVE, 1=ACTIVE, 3=ACTIVE RHS] set to: 0
 End Setting DSP Options

 Setting DSP Griddata
    ALH set from input file
    ATH1 set from input file
    ATV set from input file
 End Setting DSP Griddata


 CNC   -- CNC PACKAGE, VERSION 8, 2/22/2014 INPUT READ FROM UNIT 1840
 # File generated by Flopy version 3.5.0.dev0 on 07/12/2024 at 11:54:47.

 PROCESSING CNC OPTIONS
    CNC FLOWS WILL BE PRINTED TO LISTING FILE.
    FLOWS WILL BE SAVED TO BUDGET FILE SPECIFIED IN OUTPUT CONTROL
 END OF CNC OPTIONS

 PROCESSING CNC DIMENSIONS
    MAXBOUND =       7
 END OF CNC DIMENSIONS

 IC -- INITIAL CONDITIONS PACKAGE, VERSION 8, 3/28/2015 INPUT READ FROM UNIT 1804
 # File generated by Flopy version 3.5.0.dev0 on 07/12/2024 at 11:54:47.
 PROCESSING GRIDDATA

 OPENED S.ic_strt_layer1.txt
 FILE TYPE:OPEN/CLOSE   UNIT 2106   STATUS:OLD                 
 FORMAT:FORMATTED              ACCESS:SEQUENTIAL          
 ACTION:READ                


 OPENED S.ic_strt_layer2.txt
 FILE TYPE:OPEN/CLOSE   UNIT 2107   STATUS:OLD                 
 FORMAT:FORMATTED              ACCESS:SEQUENTIAL          
 ACTION:READ                


 OPENED S.ic_strt_layer3.txt
 FILE TYPE:OPEN/CLOSE   UNIT 2108   STATUS:OLD                 
 FORMAT:FORMATTED              ACCESS:SEQUENTIAL          
 ACTION:READ                


 OPENED S.ic_strt_layer4.txt
 FILE TYPE:OPEN/CLOSE   UNIT 2109   STATUS:OLD                 
 FORMAT:FORMATTED              ACCESS:SEQUENTIAL          
 ACTION:READ                


 OPENED S.ic_strt_layer5.txt
 FILE TYPE:OPEN/CLOSE   UNIT 2110   STATUS:OLD                 
 FORMAT:FORMATTED              ACCESS:SEQUENTIAL          
 ACTION:READ                


 OPENED S.ic_strt_layer6.txt
 FILE TYPE:OPEN/CLOSE   UNIT 2111   STATUS:OLD                 
 FORMAT:FORMATTED              ACCESS:SEQUENTIAL          
 ACTION:READ                


 OPENED S.ic_strt_layer7.txt
 FILE TYPE:OPEN/CLOSE   UNIT 2112   STATUS:OLD                 
 FORMAT:FORMATTED              ACCESS:SEQUENTIAL          
 ACTION:READ                


 OPENED S.ic_strt_layer8.txt
 FILE TYPE:OPEN/CLOSE   UNIT 2113   STATUS:OLD                 
 FORMAT:FORMATTED              ACCESS:SEQUENTIAL          
 ACTION:READ                


 OPENED S.ic_strt_layer9.txt
 FILE TYPE:OPEN/CLOSE   UNIT 2114   STATUS:OLD                 
 FORMAT:FORMATTED              ACCESS:SEQUENTIAL          
 ACTION:READ                


 OPENED S.ic_strt_layer10.txt
 FILE TYPE:OPEN/CLOSE   UNIT 2115   STATUS:OLD                 
 FORMAT:FORMATTED              ACCESS:SEQUENTIAL          
 ACTION:READ                

 END PROCESSING GRIDDATA

 MST -- MOBILE STORAGE AND TRANSFER PACKAGE, VERSION 1, 7/29/2020 INPUT READ FROM UNIT 1805


 # File generated by Flopy version 3.5.0.dev0 on 07/12/2024 at 11:54:48.
 PROCESSING MOBILE STORAGE AND TRANSFER OPTIONS
 END OF MOBILE STORAGE AND TRANSFER OPTIONS
 PROCESSING GRIDDATA

 OPENED S.mst_porosity.txt
 FILE TYPE:OPEN/CLOSE   UNIT 2116   STATUS:OLD                 
 FORMAT:FORMATTED              ACCESS:SEQUENTIAL          
 ACTION:READ                

 END PROCESSING GRIDDATA

 SSM -- SOURCE-SINK MIXING PACKAGE, VERSION 1, 8/25/2017 INPUT READ FROM UNIT 1838


 # File generated by Flopy version 3.5.0.dev0 on 07/12/2024 at 11:54:47.
 PROCESSING SSM OPTIONS
    SSM FLOW INFORMATION WILL BE PRINTED TO LISTING FILE WHENEVER ICBCFL IS NOT ZERO.
    CELL-BY-CELL FLOW INFORMATION WILL BE SAVED TO BINARY FILE WHENEVER ICBCFL IS NOT ZERO.
 END OF SSM OPTIONS

 OPENED S.ssm_sources.txt
 FILE TYPE:OPEN/CLOSE   UNIT 2117   STATUS:OLD                 
 FORMAT:FORMATTED              ACCESS:SEQUENTIAL          
 ACTION:READ                

 PROCESSING SOURCES
 AUX SOURCE DETECTED.
    USING AUX COLUMN 13 IN PACKAGE CHD
 END PROCESSING SOURCES
 OPTIONAL FILEINPUT BLOCK NOT FOUND.  CONTINUING.
      THE LAST TIME STEP WILL BE PRINTED
      THE LAST TIME STEP WILL BE PRINTED
 # File generated by Flopy version 3.5.0.dev0 on 07/12/2024 at 11:54:48.

 PROCESSING OC OPTIONS

    BUDGET INFORMATION WILL BE WRITTEN TO:
      UNIT NUMBER: 2118
      FILE NAME: S.cbb

 OPENED S.cbb
 FILE TYPE:DATA(BINARY)   UNIT 2118   STATUS:REPLACE             
 FORMAT:UNFORMATTED            ACCESS:STREAM              
 ACTION:READWRITE           

    CONCENTRATION INFORMATION WILL BE WRITTEN TO:
      UNIT NUMBER: 2119
      FILE NAME: S.ucn

 OPENED S.ucn
 FILE TYPE:DATA(BINARY)   UNIT 2119   STATUS:REPLACE             
 FORMAT:UNFORMATTED            ACCESS:STREAM              
 ACTION:READWRITE           

 END OF OC OPTIONS

start timestep kper="1" kstp="1" mode="normal"


 BEGIN READING OUTPUT CONTROL FOR STRESS PERIOD 1
      ALL TIME STEPS WILL BE SAVED
      ALL TIME STEPS WILL BE SAVED
      ALL TIME STEPS WILL BE PRINTED
      ALL TIME STEPS WILL BE PRINTED

 END READING OUTPUT CONTROL FOR STRESS PERIOD 1

 OPENED S.cnc_stress_period_data_1.txt
 FILE TYPE:OPEN/CLOSE   UNIT 2146   STATUS:OLD                 
 FORMAT:FORMATTED              ACCESS:SEQUENTIAL          
 ACTION:READ                

 UBDSV06 SAVING  SOURCE-SINK MIX IN MODEL S                PACKAGE S               CONNECTED TO MODEL S                PACKAGE SSM              ON UNIT   2118 AT TIME STEP      1, STRESS PERIOD      1
 UBDSV06 SAVING              CNC IN MODEL S                PACKAGE S               CONNECTED TO MODEL S                PACKAGE CNC              ON UNIT   2118 AT TIME STEP      1, STRESS PERIOD      1

 SSM PACKAGE (SSM) FLOW RATES   PERIOD      1   STEP        1
 ------------------------------------------------------------------------------------------------
   NUMBER   CELLID                   BOUND Q        SSM CONC          RATE         PACKAGE NAME  
 ------------------------------------------------------------------------------------------------
     1      (1,1,1)               2.08333361E-02  49.852151       1.0385866            CHD       
     2      (2,1,1)               2.08333361E-02  49.852151       1.0385866            CHD       
     3      (3,1,1)               2.08333361E-02  49.852151       1.0385866            CHD       
     4      (4,1,1)               0.0000000       0.0000000       0.0000000            CHD       
     5      (5,1,1)               0.0000000       0.0000000       0.0000000            CHD       
     6      (6,1,1)               0.0000000       0.0000000       0.0000000            CHD       
     7      (7,1,1)               0.0000000       0.0000000       0.0000000            CHD       
     8      (8,1,1)               0.0000000       0.0000000       0.0000000            CHD       
     9      (9,1,1)               0.0000000       0.0000000       0.0000000            CHD       
     10     (10,1,1)              0.0000000       0.0000000       0.0000000            CHD       
     11     (1,1,25)             -2.08333402E-02  7.4578817      -0.15537259           CHD       
     12     (2,1,25)             -2.08333402E-02  7.4578817      -0.15537259           CHD       
     13     (3,1,25)             -2.08333402E-02  7.4578817      -0.15537259           CHD       
     14     (4,1,25)             -2.08333403E-02  7.4578817      -0.15537259           CHD       
     15     (5,1,25)             -2.08333403E-02  7.4578817      -0.15537259           CHD       
     16     (6,1,25)             -2.08333403E-02  7.4578817      -0.15537259           CHD       
     17     (7,1,25)             -2.08333403E-02  7.4578817      -0.15537259           CHD       
     18     (8,1,25)             -2.08333403E-02  7.4578817      -0.15537259           CHD       
     19     (9,1,25)             -2.08333403E-02  7.4578817      -0.15537259           CHD       
     20     (10,1,25)            -2.08333403E-02  7.4578817      -0.15537259           CHD       
 ------------------------------------------------------------------------------------------------




 CNC PACKAGE (CNC) FLOW RATES   PERIOD      1   STEP        1
 -----------------------------------------------
   NUMBER   CELLID                    RATE      
 -----------------------------------------------
     1      (4,1,1)              -0.46954876    
     2      (5,1,1)               0.15432818    
     3      (6,1,1)               0.15494927    
     4      (7,1,1)               0.15520032    
     5      (8,1,1)               0.15530173    
     6      (9,1,1)               0.15534200    
     7      (10,1,1)              0.15535606    
 -----------------------------------------------



1
  CONCENTRATION IN LAYER   1 AT END OF TIME STEP   1 IN STRESS PERIOD    1
  ---------------------------------------------------------------------------

                1               2               3               4               5               6               7               8               9              10
               11              12              13              14              15              16              17              18              19              20
               21              22              23              24              25
 ................................................................................................................................................................
   1  12.08396576     8.258753373     7.533181591     7.464559247     7.458483243     7.457936819     7.457886824     7.457882188     7.457881779     7.457881767    
      7.457881763     7.457881741     7.457881713     7.457881703     7.457881706     7.457881711     7.457881709     7.457881703     7.457881700     7.457881702    
      7.457881707     7.457881713     7.457881719     7.457881727     7.457881730    
1
  CONCENTRATION IN LAYER   2 AT END OF TIME STEP   1 IN STRESS PERIOD    1
  ---------------------------------------------------------------------------

                1               2               3               4               5               6               7               8               9              10
               11              12              13              14              15              16              17              18              19              20
               21              22              23              24              25
 ................................................................................................................................................................
   1  11.65495105     8.159701578     7.524885902     7.463986377     7.458442273     7.457933724     7.457886574     7.457882155     7.457881782     7.457881788    
      7.457881784     7.457881745     7.457881699     7.457881683     7.457881690     7.457881698     7.457881695     7.457881686     7.457881681     7.457881684    
      7.457881693     7.457881703     7.457881713     7.457881726     7.457881729    
1
  CONCENTRATION IN LAYER   3 AT END OF TIME STEP   1 IN STRESS PERIOD    1
  ---------------------------------------------------------------------------

                1               2               3               4               5               6               7               8               9              10
               11              12              13              14              15              16              17              18              19              20
               21              22              23              24              25
 ................................................................................................................................................................
   1  10.44509968     7.950246557     7.510432798     7.463014940     7.458370354     7.457928126     7.457886112     7.457882095     7.457881786     7.457881822    
      7.457881817     7.457881751     7.457881677     7.457881653     7.457881666     7.457881680     7.457881673     7.457881658     7.457881650     7.457881656    
      7.457881671     7.457881689     7.457881704     7.457881724     7.457881729    
1
  CONCENTRATION IN LAYER   4 AT END OF TIME STEP   1 IN STRESS PERIOD    1
  ---------------------------------------------------------------------------

                1               2               3               4               5               6               7               8               9              10
               11              12              13              14              15              16              17              18              19              20
               21              22              23              24              25
 ................................................................................................................................................................
   1  7.457881730     7.656345447     7.495897461     7.461935190     7.458282202     7.457920952     7.457885508     7.457882023     7.457881789     7.457881854    
      7.457881848     7.457881757     7.457881657     7.457881628     7.457881648     7.457881667     7.457881658     7.457881637     7.457881625     7.457881633    
      7.457881653     7.457881676     7.457881696     7.457881721     7.457881729    
1
  CONCENTRATION IN LAYER   5 AT END OF TIME STEP   1 IN STRESS PERIOD    1
  ---------------------------------------------------------------------------

                1               2               3               4               5               6               7               8               9              10
               11              12              13              14              15              16              17              18              19              20
               21              22              23              24              25
 ................................................................................................................................................................
   1  7.457881730     7.538090285     7.480155582     7.460761847     7.458188928     7.457913213     7.457884847     7.457881953     7.457881789     7.457881873    
      7.457881867     7.457881761     7.457881647     7.457881615     7.457881640     7.457881662     7.457881651     7.457881626     7.457881612     7.457881620    
      7.457881642     7.457881668     7.457881690     7.457881719     7.457881729    
1
  CONCENTRATION IN LAYER   6 AT END OF TIME STEP   1 IN STRESS PERIOD    1
  ---------------------------------------------------------------------------

                1               2               3               4               5               6               7               8               9              10
               11              12              13              14              15              16              17              18              19              20
               21              22              23              24              25
 ................................................................................................................................................................
   1  7.457881730     7.490390057     7.469726440     7.459759005     7.458103317     7.457905847     7.457884205     7.457881893     7.457881787     7.457881879    
      7.457881873     7.457881764     7.457881645     7.457881613     7.457881640     7.457881663     7.457881651     7.457881624     7.457881609     7.457881617    
      7.457881639     7.457881666     7.457881688     7.457881718     7.457881729    
1
  CONCENTRATION IN LAYER   7 AT END OF TIME STEP   1 IN STRESS PERIOD    1
  ---------------------------------------------------------------------------

                1               2               3               4               5               6               7               8               9              10
               11              12              13              14              15              16              17              18              19              20
               21              22              23              24              25
 ................................................................................................................................................................
   1  7.457881730     7.471109496     7.463849642     7.459031780     7.458034095     7.457899568     7.457883645     7.457881846     7.457881782     7.457881874    
      7.457881869     7.457881764     7.457881649     7.457881618     7.457881644     7.457881667     7.457881655     7.457881628     7.457881613     7.457881621    
      7.457881642     7.457881668     7.457881688     7.457881717     7.457881729    
1
  CONCENTRATION IN LAYER   8 AT END OF TIME STEP   1 IN STRESS PERIOD    1
  ---------------------------------------------------------------------------

                1               2               3               4               5               6               7               8               9              10
               11              12              13              14              15              16              17              18              19              20
               21              22              23              24              25
 ................................................................................................................................................................
   1  7.457881730     7.463321237     7.460815046     7.458563687     7.457984203     7.457894769     7.457883207     7.457881816     7.457881777     7.457881860    
      7.457881856     7.457881761     7.457881658     7.457881629     7.457881652     7.457881673     7.457881662     7.457881638     7.457881624     7.457881631    
      7.457881649     7.457881673     7.457881692     7.457881718     7.457881729    
1
  CONCENTRATION IN LAYER   9 AT END OF TIME STEP   1 IN STRESS PERIOD    1
  ---------------------------------------------------------------------------

                1               2               3               4               5               6               7               8               9              10
               11              12              13              14              15              16              17              18              19              20
               21              22              23              24              25
 ................................................................................................................................................................
   1  7.457881730     7.460228875     7.459366471     7.458296658     7.457952804     7.457891583     7.457882914     7.457881805     7.457881769     7.457881835    
      7.457881832     7.457881756     7.457881672     7.457881647     7.457881665     7.457881682     7.457881674     7.457881655     7.457881643     7.457881648    
      7.457881663     7.457881682     7.457881698     7.457881720     7.457881729    
1
  CONCENTRATION IN LAYER  10 AT END OF TIME STEP   1 IN STRESS PERIOD    1
  ---------------------------------------------------------------------------

                1               2               3               4               5               6               7               8               9              10
               11              12              13              14              15              16              17              18              19              20
               21              22              23              24              25
 ................................................................................................................................................................
   1  7.457881730     7.459149100     7.458794594     7.458177746     7.457937823     7.457889991     7.457882777     7.457881817     7.457881758     7.457881791    
      7.457881790     7.457881748     7.457881698     7.457881681     7.457881690     7.457881700     7.457881697     7.457881686     7.457881679     7.457881681    
      7.457881689     7.457881701     7.457881710     7.457881723     7.457881729    

 CONCENTRATION WILL BE SAVED ON UNIT 2119 AT END OF TIME STEP    1, STRESS PERIOD    1


  MASS BUDGET FOR ENTIRE MODEL AT END OF TIME STEP    1, STRESS PERIOD   1
  ---------------------------------------------------------------------------------------------------

     CUMULATIVE MASS      M       RATES FOR THIS TIME STEP      M/T          PACKAGE NAME    
     ------------------                 ------------------------                     ----------------

           IN:                                      IN:
           ---                                      ---
     STORAGE-AQUEOUS =       9.9209E-06       STORAGE-AQUEOUS =       9.9209E-07     MST                              
                 CHD =          31.1576                   CHD =           3.1158     SSM_CHD                          
                 CNC =          10.8327                   CNC =           1.0833     CNC                              

            TOTAL IN =          41.9903              TOTAL IN =           4.1990

          OUT:                                     OUT:
          ----                                     ----
     STORAGE-AQUEOUS =          20.2296       STORAGE-AQUEOUS =           2.0230     MST                              
                 CHD =          15.5373                   CHD =           1.5537     SSM_CHD                          
                 CNC =           6.2234                   CNC =           0.6223     CNC                              

           TOTAL OUT =          41.9903             TOTAL OUT =           4.1990

            IN - OUT =       1.1995E-09              IN - OUT =       1.1995E-10

 PERCENT DISCREPANCY =           0.00     PERCENT DISCREPANCY =           0.00




         TIME SUMMARY AT END OF TIME STEP    1 IN STRESS PERIOD    1
                    SECONDS     MINUTES      HOURS       DAYS        YEARS
                    -----------------------------------------------------------
   TIME STEP LENGTH 8.64000E+05  14400.      240.00      10.000     2.73785E-02
 STRESS PERIOD TIME 8.64000E+05  14400.      240.00      10.000     2.73785E-02
         TOTAL TIME 8.64000E+05  14400.      240.00      10.000     2.73785E-02


end timestep


start timestep kper="1" kstp="2" mode="normal"

 UBDSV06 SAVING  SOURCE-SINK MIX IN MODEL S                PACKAGE S               CONNECTED TO MODEL S                PACKAGE SSM              ON UNIT   2118 AT TIME STEP      2, STRESS PERIOD      1
 UBDSV06 SAVING              CNC IN MODEL S                PACKAGE S               CONNECTED TO MODEL S                PACKAGE CNC              ON UNIT   2118 AT TIME STEP      2, STRESS PERIOD      1

 SSM PACKAGE (SSM) FLOW RATES   PERIOD      1   STEP        2
 ------------------------------------------------------------------------------------------------
   NUMBER   CELLID                   BOUND Q        SSM CONC          RATE         PACKAGE NAME  
 ------------------------------------------------------------------------------------------------
     1      (1,1,1)               2.08333319E-02  49.852151       1.0385864            CHD       
     2      (2,1,1)               2.08333319E-02  49.852151       1.0385864            CHD       
     3      (3,1,1)               2.08333319E-02  49.852151       1.0385864            CHD       
     4      (4,1,1)               0.0000000       0.0000000       0.0000000            CHD       
     5      (5,1,1)               0.0000000       0.0000000       0.0000000            CHD       
     6      (6,1,1)               0.0000000       0.0000000       0.0000000            CHD       
     7      (7,1,1)               0.0000000       0.0000000       0.0000000            CHD       
     8      (8,1,1)               0.0000000       0.0000000       0.0000000            CHD       
     9      (9,1,1)               0.0000000       0.0000000       0.0000000            CHD       
     10     (10,1,1)              0.0000000       0.0000000       0.0000000            CHD       
     11     (1,1,25)             -2.08333370E-02  7.4578817      -0.15537256           CHD       
     12     (2,1,25)             -2.08333370E-02  7.4578817      -0.15537256           CHD       
     13     (3,1,25)             -2.08333370E-02  7.4578817      -0.15537256           CHD       
     14     (4,1,25)             -2.08333370E-02  7.4578817      -0.15537256           CHD       
     15     (5,1,25)             -2.08333370E-02  7.4578817      -0.15537256           CHD       
     16     (6,1,25)             -2.08333370E-02  7.4578817      -0.15537256           CHD       
     17     (7,1,25)             -2.08333370E-02  7.4578817      -0.15537256           CHD       
     18     (8,1,25)             -2.08333370E-02  7.4578817      -0.15537256           CHD       
     19     (9,1,25)             -2.08333370E-02  7.4578817      -0.15537256           CHD       
     20     (10,1,25)            -2.08333370E-02  7.4578817      -0.15537256           CHD       
 ------------------------------------------------------------------------------------------------




 CNC PACKAGE (CNC) FLOW RATES   PERIOD      1   STEP        2
 -----------------------------------------------
   NUMBER   CELLID                    RATE      
 -----------------------------------------------
     1      (4,1,1)              -0.82703588    
     2      (5,1,1)               0.15221563    
     3      (6,1,1)               0.15395155    
     4      (7,1,1)               0.15473587    
     5      (8,1,1)               0.15508572    
     6      (9,1,1)               0.15523695    
     7      (10,1,1)              0.15529313    
 -----------------------------------------------



1
  CONCENTRATION IN LAYER   1 AT END OF TIME STEP   2 IN STRESS PERIOD    1
  ---------------------------------------------------------------------------

                1               2               3               4               5               6               7               8               9              10
               11              12              13              14              15              16              17              18              19              20
               21              22              23              24              25
 ................................................................................................................................................................
   1  15.31800756     9.364523308     7.709523833     7.486866387     7.461101774     7.458232818     7.457919521     7.457885768     7.457882182     7.457881805    
      7.457881754     7.457881732     7.457881711     7.457881696     7.457881689     7.457881684     7.457881678     7.457881674     7.457881673     7.457881677    
      7.457881685     7.457881695     7.457881707     7.457881722     7.457881728    
1
  CONCENTRATION IN LAYER   2 AT END OF TIME STEP   2 IN STRESS PERIOD    1
  ---------------------------------------------------------------------------

                1               2               3               4               5               6               7               8               9              10
               11              12              13              14              15              16              17              18              19              20
               21              22              23              24              25
 ................................................................................................................................................................
   1  14.40996225     9.114096753     7.682879253     7.484601543     7.460905053     7.458214998     7.457917891     7.457885637     7.457882183     7.457881803    
      7.457881745     7.457881724     7.457881705     7.457881689     7.457881676     7.457881666     7.457881658     7.457881654     7.457881655     7.457881661    
      7.457881671     7.457881685     7.457881700     7.457881720     7.457881728    
1
  CONCENTRATION IN LAYER   3 AT END OF TIME STEP   2 IN STRESS PERIOD    1
  ---------------------------------------------------------------------------

                1               2               3               4               5               6               7               8               9              10
               11              12              13              14              15              16              17              18              19              20
               21              22              23              24              25
 ................................................................................................................................................................
   1  12.14005733     8.621224849     7.637482412     7.480749554     7.460555855     7.458182452     7.457914867     7.457885387     7.457882180     7.457881799    
      7.457881730     7.457881713     7.457881698     7.457881680     7.457881657     7.457881638     7.457881626     7.457881623     7.457881627     7.457881637    
      7.457881650     7.457881668     7.457881689     7.457881717     7.457881728    
1
  CONCENTRATION IN LAYER   4 AT END OF TIME STEP   2 IN STRESS PERIOD    1
  ---------------------------------------------------------------------------

                1               2               3               4               5               6               7               8               9              10
               11              12              13              14              15              16              17              18              19              20
               21              22              23              24              25
 ................................................................................................................................................................
   1  7.457881730     7.992043040     7.590762143     7.476338792     7.460118719     7.458140203     7.457910861     7.457885035     7.457882164     7.457881796    
      7.457881719     7.457881705     7.457881693     7.457881673     7.457881642     7.457881614     7.457881598     7.457881597     7.457881603     7.457881615    
      7.457881631     7.457881653     7.457881678     7.457881713     7.457881727    
1
  CONCENTRATION IN LAYER   5 AT END OF TIME STEP   2 IN STRESS PERIOD    1
  ---------------------------------------------------------------------------

                1               2               3               4               5               6               7               8               9              10
               11              12              13              14              15              16              17              18              19              20
               21              22              23              24              25
 ................................................................................................................................................................
   1  7.457881730     7.700331290     7.540830718     7.471510170     7.459647979     7.458093923     7.457906375     7.457884619     7.457882135     7.457881793    
      7.457881715     7.457881702     7.457881692     7.457881669     7.457881633     7.457881600     7.457881582     7.457881581     7.457881588     7.457881602    
      7.457881619     7.457881643     7.457881670     7.457881709     7.457881727    
1
  CONCENTRATION IN LAYER   6 AT END OF TIME STEP   2 IN STRESS PERIOD    1
  ---------------------------------------------------------------------------

                1               2               3               4               5               6               7               8               9              10
               11              12              13              14              15              16              17              18              19              20
               21              22              23              24              25
 ................................................................................................................................................................
   1  7.457881730     7.567012342     7.505254669     7.467200375     7.459202822     7.458048953     7.457901914     7.457884187     7.457882096     7.457881790    
      7.457881715     7.457881703     7.457881692     7.457881669     7.457881631     7.457881597     7.457881578     7.457881577     7.457881584     7.457881597    
      7.457881615     7.457881639     7.457881666     7.457881707     7.457881726    
1
  CONCENTRATION IN LAYER   7 AT END OF TIME STEP   2 IN STRESS PERIOD    1
  ---------------------------------------------------------------------------

                1               2               3               4               5               6               7               8               9              10
               11              12              13              14              15              16              17              18              19              20
               21              22              23              24              25
 ................................................................................................................................................................
   1  7.457881730     7.506777148     7.483541801     7.463900940     7.458829166     7.458009651     7.457897912     7.457883785     7.457882054     7.457881787    
      7.457881718     7.457881706     7.457881694     7.457881671     7.457881635     7.457881602     7.457881584     7.457881582     7.457881588     7.457881601    
      7.457881618     7.457881641     7.457881667     7.457881707     7.457881726    
1
  CONCENTRATION IN LAYER   8 AT END OF TIME STEP   2 IN STRESS PERIOD    1
  ---------------------------------------------------------------------------

                1               2               3               4               5               6               7               8               9              10
               11              12              13              14              15              16              17              18              19              20
               21              22              23              24              25
 ................................................................................................................................................................
   1  7.457881730     7.479908335     7.471449511     7.461660235     7.458549477     7.457978870     7.457894691     7.457883449     7.457882013     7.457881782    
      7.457881721     7.457881709     7.457881698     7.457881676     7.457881644     7.457881614     7.457881597     7.457881595     7.457881600     7.457881612    
      7.457881627     7.457881648     7.457881672     7.457881708     7.457881726    
1
  CONCENTRATION IN LAYER   9 AT END OF TIME STEP   2 IN STRESS PERIOD    1
  ---------------------------------------------------------------------------

                1               2               3               4               5               6               7               8               9              10
               11              12              13              14              15              16              17              18              19              20
               21              22              23              24              25
 ................................................................................................................................................................
   1  7.457881730     7.468294054     7.465287084     7.460321819     7.458367740     7.457958035     7.457892449     7.457883198     7.457881974     7.457881780    
      7.457881729     7.457881715     7.457881701     7.457881682     7.457881655     7.457881632     7.457881618     7.457881615     7.457881619     7.457881628    
      7.457881641     7.457881659     7.457881680     7.457881711     7.457881727    
1
  CONCENTRATION IN LAYER  10 AT END OF TIME STEP   2 IN STRESS PERIOD    1
  ---------------------------------------------------------------------------

                1               2               3               4               5               6               7               8               9              10
               11              12              13              14              15              16              17              18              19              20
               21              22              23              24              25
 ................................................................................................................................................................
   1  7.457881730     7.463979514     7.462737732     7.459706667     7.458279331     7.457947604     7.457891281     7.457883032     7.457881937     7.457881790    
      7.457881754     7.457881730     7.457881702     7.457881683     7.457881670     7.457881660     7.457881650     7.457881644     7.457881643     7.457881649    
      7.457881660     7.457881675     7.457881691     7.457881714     7.457881727    

 CONCENTRATION WILL BE SAVED ON UNIT 2119 AT END OF TIME STEP    2, STRESS PERIOD    1


  MASS BUDGET FOR ENTIRE MODEL AT END OF TIME STEP    2, STRESS PERIOD   1
  ---------------------------------------------------------------------------------------------------

     CUMULATIVE MASS      M       RATES FOR THIS TIME STEP      M/T          PACKAGE NAME    
     ------------------                 ------------------------                     ----------------

           IN:                                      IN:
           ---                                      ---
     STORAGE-AQUEOUS =       1.6450E-05       STORAGE-AQUEOUS =       6.5292E-07     MST                              
                 CHD =          62.3152                   CHD =           3.1158     SSM_CHD                          
                 CNC =          21.5820                   CNC =           1.0749     CNC                              

            TOTAL IN =          83.8972              TOTAL IN =           4.1907

          OUT:                                     OUT:
          ----                                     ----
     STORAGE-AQUEOUS =          36.8448       STORAGE-AQUEOUS =           1.6615     MST                              
                 CHD =          31.0745                   CHD =           1.5537     SSM_CHD                          
                 CNC =          15.9779                   CNC =           0.9755     CNC                              

           TOTAL OUT =          83.8972             TOTAL OUT =           4.1907

            IN - OUT =       3.0032E-09              IN - OUT =       1.8037E-10

 PERCENT DISCREPANCY =           0.00     PERCENT DISCREPANCY =           0.00




         TIME SUMMARY AT END OF TIME STEP    2 IN STRESS PERIOD    1
                    SECONDS     MINUTES      HOURS       DAYS        YEARS
                    -----------------------------------------------------------
   TIME STEP LENGTH 8.64000E+05  14400.      240.00      10.000     2.73785E-02
 STRESS PERIOD TIME 1.72800E+06  28800.      480.00      20.000     5.47570E-02
         TOTAL TIME 1.72800E+06  28800.      480.00      20.000     5.47570E-02


end timestep


start timestep kper="1" kstp="3" mode="normal"

 UBDSV06 SAVING  SOURCE-SINK MIX IN MODEL S                PACKAGE S               CONNECTED TO MODEL S                PACKAGE SSM              ON UNIT   2118 AT TIME STEP      3, STRESS PERIOD      1
 UBDSV06 SAVING              CNC IN MODEL S                PACKAGE S               CONNECTED TO MODEL S                PACKAGE CNC              ON UNIT   2118 AT TIME STEP      3, STRESS PERIOD      1

 SSM PACKAGE (SSM) FLOW RATES   PERIOD      1   STEP        3
 ------------------------------------------------------------------------------------------------
   NUMBER   CELLID                   BOUND Q        SSM CONC          RATE         PACKAGE NAME  
 ------------------------------------------------------------------------------------------------
     1      (1,1,1)               2.08333325E-02  49.852151       1.0385864            CHD       
     2      (2,1,1)               2.08333325E-02  49.852151       1.0385864            CHD       
     3      (3,1,1)               2.08333325E-02  49.852151       1.0385864            CHD       
     4      (4,1,1)               0.0000000       0.0000000       0.0000000            CHD       
     5      (5,1,1)               0.0000000       0.0000000       0.0000000            CHD       
     6      (6,1,1)               0.0000000       0.0000000       0.0000000            CHD       
     7      (7,1,1)               0.0000000       0.0000000       0.0000000            CHD       
     8      (8,1,1)               0.0000000       0.0000000       0.0000000            CHD       
     9      (9,1,1)               0.0000000       0.0000000       0.0000000            CHD       
     10     (10,1,1)              0.0000000       0.0000000       0.0000000            CHD       
     11     (1,1,25)             -2.08333362E-02  7.4578817      -0.15537256           CHD       
     12     (2,1,25)             -2.08333362E-02  7.4578817      -0.15537256           CHD       
     13     (3,1,25)             -2.08333362E-02  7.4578817      -0.15537256           CHD       
     14     (4,1,25)             -2.08333362E-02  7.4578817      -0.15537256           CHD       
     15     (5,1,25)             -2.08333362E-02  7.4578817      -0.15537256           CHD       
     16     (6,1,25)             -2.08333362E-02  7.4578817      -0.15537256           CHD       
     17     (7,1,25)             -2.08333362E-02  7.4578817      -0.15537256           CHD       
     18     (8,1,25)             -2.08333362E-02  7.4578817      -0.15537256           CHD       
     19     (9,1,25)             -2.08333362E-02  7.4578817      -0.15537256           CHD       
     20     (10,1,25)            -2.08333362E-02  7.4578817      -0.15537256           CHD       
 ------------------------------------------------------------------------------------------------




 CNC PACKAGE (CNC) FLOW RATES   PERIOD      1   STEP        3
 -----------------------------------------------
   NUMBER   CELLID                    RATE      
 -----------------------------------------------
     1      (4,1,1)              -1.0541034     
     2      (5,1,1)               0.14937817    
     3      (6,1,1)               0.15245597    
     4      (7,1,1)               0.15396415    
     5      (8,1,1)               0.15468939    
     6      (9,1,1)               0.15502409    
     7      (10,1,1)              0.15515448    
 -----------------------------------------------



1
  CONCENTRATION IN LAYER   1 AT END OF TIME STEP   3 IN STRESS PERIOD    1
  ---------------------------------------------------------------------------

                1               2               3               4               5               6               7               8               9              10
               11              12              13              14              15              16              17              18              19              20
               21              22              23              24              25
 ................................................................................................................................................................
   1  16.63826296     10.50397563     7.980235788     7.532923131     7.467889961     7.459155529     7.458038485     7.457900554     7.457883970     7.457882018    
      7.457881777     7.457881731     7.457881704     7.457881683     7.457881669     7.457881660     7.457881653     7.457881649     7.457881649     7.457881654    
      7.457881664     7.457881678     7.457881695     7.457881715     7.457881726    
1
  CONCENTRATION IN LAYER   2 AT END OF TIME STEP   3 IN STRESS PERIOD    1
  ---------------------------------------------------------------------------

                1               2               3               4               5               6               7               8               9              10
               11              12              13              14              15              16              17              18              19              20
               21              22              23              24              25
 ................................................................................................................................................................
   1  16.24504255     10.09801187     7.927767671     7.527568379     7.467337531     7.459097000     7.458032291     7.457899912     7.457883908     7.457882010    
      7.457881773     7.457881727     7.457881697     7.457881673     7.457881655     7.457881644     7.457881636     7.457881632     7.457881633     7.457881639    
      7.457881651     7.457881669     7.457881688     7.457881713     7.457881726    
1
  CONCENTRATION IN LAYER   3 AT END OF TIME STEP   3 IN STRESS PERIOD    1
  ---------------------------------------------------------------------------

                1               2               3               4               5               6               7               8               9              10
               11              12              13              14              15              16              17              18              19              20
               21              22              23              24              25
 ................................................................................................................................................................
   1  13.20492410     9.329591132     7.838818829     7.518373344     7.466345615     7.458989174     7.458020745     7.457898707     7.457883789     7.457881997    
      7.457881768     7.457881721     7.457881687     7.457881656     7.457881633     7.457881618     7.457881609     7.457881605     7.457881607     7.457881616    
      7.457881631     7.457881654     7.457881678     7.457881710     7.457881725    
1
  CONCENTRATION IN LAYER   4 AT END OF TIME STEP   3 IN STRESS PERIOD    1
  ---------------------------------------------------------------------------

                1               2               3               4               5               6               7               8               9              10
               11              12              13              14              15              16              17              18              19              20
               21              22              23              24              25
 ................................................................................................................................................................
   1  7.457881730     8.392962571     7.744231882     7.507539925     7.465081266     7.458847451     7.458005341     7.457897079     7.457883627     7.457881981    
      7.457881764     7.457881717     7.457881679     7.457881642     7.457881614     7.457881595     7.457881584     7.457881581     7.457881583     7.457881594    
      7.457881612     7.457881639     7.457881668     7.457881706     7.457881724    
1
  CONCENTRATION IN LAYER   5 AT END OF TIME STEP   3 IN STRESS PERIOD    1
  ---------------------------------------------------------------------------

                1               2               3               4               5               6               7               8               9              10
               11              12              13              14              15              16              17              18              19              20
               21              22              23              24              25
 ................................................................................................................................................................
   1  7.457881730     7.918248244     7.644809194     7.495606704     7.463698358     7.458689971     7.457987944     7.457895215     7.457883437     7.457881962    
      7.457881762     7.457881715     7.457881674     7.457881635     7.457881602     7.457881581     7.457881569     7.457881565     7.457881568     7.457881579    
      7.457881600     7.457881628     7.457881660     7.457881702     7.457881724    
1
  CONCENTRATION IN LAYER   6 AT END OF TIME STEP   3 IN STRESS PERIOD    1
  ---------------------------------------------------------------------------

                1               2               3               4               5               6               7               8               9              10
               11              12              13              14              15              16              17              18              19              20
               21              22              23              24              25
 ................................................................................................................................................................
   1  7.457881730     7.681873612     7.570498322     7.484639562     7.462361008     7.458534328     7.457970454     7.457893311     7.457883237     7.457881943    
      7.457881761     7.457881716     7.457881674     7.457881633     7.457881599     7.457881577     7.457881564     7.457881560     7.457881563     7.457881574    
      7.457881595     7.457881624     7.457881656     7.457881700     7.457881723    
1
  CONCENTRATION IN LAYER   7 AT END OF TIME STEP   3 IN STRESS PERIOD    1
  ---------------------------------------------------------------------------

                1               2               3               4               5               6               7               8               9              10
               11              12              13              14              15              16              17              18              19              20
               21              22              23              24              25
 ................................................................................................................................................................
   1  7.457881730     7.566045392     7.522450549     7.475911345     7.461207147     7.458395663     7.457954572     7.457891555     7.457883049     7.457881923    
      7.457881760     7.457881718     7.457881677     7.457881636     7.457881603     7.457881582     7.457881569     7.457881564     7.457881566     7.457881577    
      7.457881597     7.457881625     7.457881657     7.457881699     7.457881723    
1
  CONCENTRATION IN LAYER   8 AT END OF TIME STEP   3 IN STRESS PERIOD    1
  ---------------------------------------------------------------------------

                1               2               3               4               5               6               7               8               9              10
               11              12              13              14              15              16              17              18              19              20
               21              22              23              24              25
 ................................................................................................................................................................
   1  7.457881730     7.510346704     7.494123048     7.469744065     7.460318913     7.458284967     7.457941638     7.457890102     7.457882888     7.457881907    
      7.457881761     7.457881720     7.457881681     7.457881643     7.457881613     7.457881593     7.457881581     7.457881576     7.457881578     7.457881587    
      7.457881605     7.457881632     7.457881661     7.457881700     7.457881723    
1
  CONCENTRATION IN LAYER   9 AT END OF TIME STEP   3 IN STRESS PERIOD    1
  ---------------------------------------------------------------------------

                1               2               3               4               5               6               7               8               9              10
               11              12              13              14              15              16              17              18              19              20
               21              22              23              24              25
 ................................................................................................................................................................
   1  7.457881730     7.484642138     7.478945390     7.465930985     7.459727681     7.458208816     7.457932575     7.457889067     7.457882770     7.457881895    
      7.457881763     7.457881724     7.457881687     7.457881653     7.457881627     7.457881610     7.457881599     7.457881594     7.457881594     7.457881602    
      7.457881618     7.457881642     7.457881668     7.457881703     7.457881723    
1
  CONCENTRATION IN LAYER  10 AT END OF TIME STEP   3 IN STRESS PERIOD    1
  ---------------------------------------------------------------------------

                1               2               3               4               5               6               7               8               9              10
               11              12              13              14              15              16              17              18              19              20
               21              22              23              24              25
 ................................................................................................................................................................
   1  7.457881730     7.474628097     7.472437558     7.464136262     7.459435278     7.458170262     7.457927921     7.457888529     7.457882710     7.457881891    
      7.457881765     7.457881728     7.457881695     7.457881666     7.457881645     7.457881631     7.457881620     7.457881614     7.457881614     7.457881621    
      7.457881634     7.457881654     7.457881676     7.457881705     7.457881724    

 CONCENTRATION WILL BE SAVED ON UNIT 2119 AT END OF TIME STEP    3, STRESS PERIOD    1


  MASS BUDGET FOR ENTIRE MODEL AT END OF TIME STEP    3, STRESS PERIOD   1
  ---------------------------------------------------------------------------------------------------

     CUMULATIVE MASS      M       RATES FOR THIS TIME STEP      M/T          PACKAGE NAME    
     ------------------                 ------------------------                     ----------------

           IN:                                      IN:
           ---                                      ---
     STORAGE-AQUEOUS =       1.9705E-05       STORAGE-AQUEOUS =       3.2552E-07     MST                              
                 CHD =          93.4728                   CHD =           3.1158     SSM_CHD                          
                 CNC =          32.2207                   CNC =           1.0639     CNC                              

            TOTAL IN =         125.6935              TOTAL IN =           4.1796

          OUT:                                     OUT:
          ----                                     ----
     STORAGE-AQUEOUS =          51.1308       STORAGE-AQUEOUS =           1.4286     MST                              
                 CHD =          46.6118                   CHD =           1.5537     SSM_CHD                          
                 CNC =          27.9509                   CNC =           1.1973     CNC                              

           TOTAL OUT =         125.6935             TOTAL OUT =           4.1796

            IN - OUT =       6.2863E-09              IN - OUT =       3.2831E-10

 PERCENT DISCREPANCY =           0.00     PERCENT DISCREPANCY =           0.00




         TIME SUMMARY AT END OF TIME STEP    3 IN STRESS PERIOD    1
                    SECONDS     MINUTES      HOURS       DAYS        YEARS
                    -----------------------------------------------------------
   TIME STEP LENGTH 8.64000E+05  14400.      240.00      10.000     2.73785E-02
 STRESS PERIOD TIME 2.59200E+06  43200.      720.00      30.000     8.21355E-02
         TOTAL TIME 2.59200E+06  43200.      720.00      30.000     8.21355E-02


end timestep


start timestep kper="1" kstp="4" mode="normal"

 UBDSV06 SAVING  SOURCE-SINK MIX IN MODEL S                PACKAGE S               CONNECTED TO MODEL S                PACKAGE SSM              ON UNIT   2118 AT TIME STEP      4, STRESS PERIOD      1
 UBDSV06 SAVING              CNC IN MODEL S                PACKAGE S               CONNECTED TO MODEL S                PACKAGE CNC              ON UNIT   2118 AT TIME STEP      4, STRESS PERIOD      1

 SSM PACKAGE (SSM) FLOW RATES   PERIOD      1   STEP        4
 ------------------------------------------------------------------------------------------------
   NUMBER   CELLID                   BOUND Q        SSM CONC          RATE         PACKAGE NAME  
 ------------------------------------------------------------------------------------------------
     1      (1,1,1)               2.08333321E-02  49.852151       1.0385864            CHD       
     2      (2,1,1)               2.08333321E-02  49.852151       1.0385864            CHD       
     3      (3,1,1)               2.08333321E-02  49.852151       1.0385864            CHD       
     4      (4,1,1)               0.0000000       0.0000000       0.0000000            CHD       
     5      (5,1,1)               0.0000000       0.0000000       0.0000000            CHD       
     6      (6,1,1)               0.0000000       0.0000000       0.0000000            CHD       
     7      (7,1,1)               0.0000000       0.0000000       0.0000000            CHD       
     8      (8,1,1)               0.0000000       0.0000000       0.0000000            CHD       
     9      (9,1,1)               0.0000000       0.0000000       0.0000000            CHD       
     10     (10,1,1)              0.0000000       0.0000000       0.0000000            CHD       
     11     (1,1,25)             -2.08333356E-02  7.4578817      -0.15537255           CHD       
     12     (2,1,25)             -2.08333356E-02  7.4578817      -0.15537255           CHD       
     13     (3,1,25)             -2.08333356E-02  7.4578817      -0.15537255           CHD       
     14     (4,1,25)             -2.08333356E-02  7.4578817      -0.15537255           CHD       
     15     (5,1,25)             -2.08333356E-02  7.4578817      -0.15537255           CHD       
     16     (6,1,25)             -2.08333356E-02  7.4578817      -0.15537255           CHD       
     17     (7,1,25)             -2.08333356E-02  7.4578817      -0.15537255           CHD       
     18     (8,1,25)             -2.08333356E-02  7.4578817      -0.15537255           CHD       
     19     (9,1,25)             -2.08333356E-02  7.4578817      -0.15537255           CHD       
     20     (10,1,25)            -2.08333356E-02  7.4578817      -0.15537255           CHD       
 ------------------------------------------------------------------------------------------------




 CNC PACKAGE (CNC) FLOW RATES   PERIOD      1   STEP        4
 -----------------------------------------------
   NUMBER   CELLID                    RATE      
 -----------------------------------------------
     1      (4,1,1)              -1.1936259     
     2      (5,1,1)               0.14622678    
     3      (6,1,1)               0.15064343    
     4      (7,1,1)               0.15294650    
     5      (8,1,1)               0.15412103    
     6      (9,1,1)               0.15469173    
     7      (10,1,1)              0.15492249    
 -----------------------------------------------



1
  CONCENTRATION IN LAYER   1 AT END OF TIME STEP   4 IN STRESS PERIOD    1
  ---------------------------------------------------------------------------

                1               2               3               4               5               6               7               8               9              10
               11              12              13              14              15              16              17              18              19              20
               21              22              23              24              25
 ................................................................................................................................................................
   1  16.60105672     11.49045767     8.318817545     7.607947296     7.481445558     7.461330729     7.458361308     7.457945898     7.457890087     7.457882815    
      7.457881875     7.457881738     7.457881698     7.457881673     7.457881654     7.457881641     7.457881632     7.457881627     7.457881628     7.457881634    
      7.457881646     7.457881663     7.457881683     7.457881708     7.457881723    
1
  CONCENTRATION IN LAYER   2 AT END OF TIME STEP   4 IN STRESS PERIOD    1
  ---------------------------------------------------------------------------

                1               2               3               4               5               6               7               8               9              10
               11              12              13              14              15              16              17              18              19              20
               21              22              23              24              25
 ................................................................................................................................................................
   1  16.63896093     10.96972041     8.237033260     7.598085558     7.480259230     7.461186166     7.458343970     7.457943876     7.457889860     7.457882788    
      7.457881868     7.457881731     7.457881690     7.457881663     7.457881642     7.457881627     7.457881617     7.457881612     7.457881614     7.457881621    
      7.457881635     7.457881655     7.457881678     7.457881706     7.457881723    
1
  CONCENTRATION IN LAYER   3 AT END OF TIME STEP   4 IN STRESS PERIOD    1
  ---------------------------------------------------------------------------

                1               2               3               4               5               6               7               8               9              10
               11              12              13              14              15              16              17              18              19              20
               21              22              23              24              25
 ................................................................................................................................................................
   1  13.84921958     9.983475580     8.098168628     7.580984561     7.478108194     7.460917998     7.458311510     7.457940072     7.457889431     7.457882739    
      7.457881856     7.457881721     7.457881678     7.457881649     7.457881624     7.457881605     7.457881593     7.457881588     7.457881591     7.457881601    
      7.457881618     7.457881642     7.457881669     7.457881702     7.457881722    
1
  CONCENTRATION IN LAYER   4 AT END OF TIME STEP   4 IN STRESS PERIOD    1
  ---------------------------------------------------------------------------

                1               2               3               4               5               6               7               8               9              10
               11              12              13              14              15              16              17              18              19              20
               21              22              23              24              25
 ................................................................................................................................................................
   1  7.457881730     8.799562755     7.945690280     7.560349800     7.475326520     7.460562072     7.458267918     7.457934924     7.457888846     7.457882673    
      7.457881843     7.457881713     7.457881668     7.457881636     7.457881607     7.457881585     7.457881570     7.457881566     7.457881569     7.457881581    
      7.457881601     7.457881628     7.457881659     7.457881698     7.457881721    
1
  CONCENTRATION IN LAYER   5 AT END OF TIME STEP   4 IN STRESS PERIOD    1
  ---------------------------------------------------------------------------

                1               2               3               4               5               6               7               8               9              10
               11              12              13              14              15              16              17              18              19              20
               21              22              23              24              25
 ................................................................................................................................................................
   1  7.457881730     8.160275500     7.787369880     7.537485579     7.472243634     7.460161972     7.458218270     7.457929003     7.457888166     7.457882597    
      7.457881832     7.457881708     7.457881663     7.457881628     7.457881596     7.457881571     7.457881555     7.457881550     7.457881555     7.457881568    
      7.457881589     7.457881619     7.457881652     7.457881695     7.457881720    
1
  CONCENTRATION IN LAYER   6 AT END OF TIME STEP   4 IN STRESS PERIOD    1
  ---------------------------------------------------------------------------

                1               2               3               4               5               6               7               8               9              10
               11              12              13              14              15              16              17              18              19              20
               21              22              23              24              25
 ................................................................................................................................................................
   1  7.457881730     7.821076075     7.664908633     7.516024133     7.469210544     7.459761241     7.458167878     7.457922929     7.457887461     7.457882518    
      7.457881823     7.457881707     7.457881662     7.457881626     7.457881593     7.457881567     7.457881550     7.457881545     7.457881549     7.457881562    
      7.457881584     7.457881614     7.457881648     7.457881692     7.457881720    
1
  CONCENTRATION IN LAYER   7 AT END OF TIME STEP   4 IN STRESS PERIOD    1
  ---------------------------------------------------------------------------

                1               2               3               4               5               6               7               8               9              10
               11              12              13              14              15              16              17              18              19              20
               21              22              23              24              25
 ................................................................................................................................................................
   1  7.457881730     7.644200288     7.582197241     7.498445666     7.466539004     7.459398968     7.458121656     7.457917296     7.457886800     7.457882444    
      7.457881817     7.457881708     7.457881664     7.457881628     7.457881596     7.457881570     7.457881554     7.457881548     7.457881551     7.457881564    
      7.457881585     7.457881615     7.457881648     7.457881692     7.457881719    
1
  CONCENTRATION IN LAYER   8 AT END OF TIME STEP   4 IN STRESS PERIOD    1
  ---------------------------------------------------------------------------

                1               2               3               4               5               6               7               8               9              10
               11              12              13              14              15              16              17              18              19              20
               21              22              23              24              25
 ................................................................................................................................................................
   1  7.457881730     7.553996548     7.531231866     7.485647074     7.464438904     7.459105597     7.458083654     7.457912615     7.457886244     7.457882381    
      7.457881813     7.457881712     7.457881669     7.457881635     7.457881604     7.457881580     7.457881564     7.457881558     7.457881561     7.457881572    
      7.457881592     7.457881620     7.457881651     7.457881693     7.457881719    
1
  CONCENTRATION IN LAYER   9 AT END OF TIME STEP   4 IN STRESS PERIOD    1
  ---------------------------------------------------------------------------

                1               2               3               4               5               6               7               8               9              10
               11              12              13              14              15              16              17              18              19              20
               21              22              23              24              25
 ................................................................................................................................................................
   1  7.457881730     7.510166956     7.502835145     7.477524131     7.463015694     7.458901308     7.458056823     7.457909279     7.457885844     7.457882336    
      7.457881813     7.457881718     7.457881676     7.457881644     7.457881616     7.457881594     7.457881579     7.457881573     7.457881575     7.457881585    
      7.457881603     7.457881628     7.457881657     7.457881694     7.457881720    
1
  CONCENTRATION IN LAYER  10 AT END OF TIME STEP   4 IN STRESS PERIOD    1
  ---------------------------------------------------------------------------

                1               2               3               4               5               6               7               8               9              10
               11              12              13              14              15              16              17              18              19              20
               21              22              23              24              25
 ................................................................................................................................................................
   1  7.457881730     7.492444631     7.490314353     7.473631798     7.462303237     7.458797045     7.458042988     7.457907545     7.457885634     7.457882315    
      7.457881817     7.457881726     7.457881686     7.457881655     7.457881629     7.457881610     7.457881596     7.457881590     7.457881591     7.457881599    
      7.457881614     7.457881637     7.457881663     7.457881696     7.457881720    

 CONCENTRATION WILL BE SAVED ON UNIT 2119 AT END OF TIME STEP    4, STRESS PERIOD    1


  MASS BUDGET FOR ENTIRE MODEL AT END OF TIME STEP    4, STRESS PERIOD   1
  ---------------------------------------------------------------------------------------------------

     CUMULATIVE MASS      M       RATES FOR THIS TIME STEP      M/T          PACKAGE NAME    
     ------------------                 ------------------------                     ----------------

           IN:                                      IN:
           ---                                      ---
     STORAGE-AQUEOUS =       2.1991E-05       STORAGE-AQUEOUS =       2.2858E-07     MST                              
                 CHD =         124.6304                   CHD =           3.1158     SSM_CHD                          
                 CNC =          42.7352                   CNC =           1.0515     CNC                              

            TOTAL IN =         167.3656              TOTAL IN =           4.1672

          OUT:                                     OUT:
          ----                                     ----
     STORAGE-AQUEOUS =          63.9504       STORAGE-AQUEOUS =           1.2820     MST                              
                 CHD =          62.1490                   CHD =           1.5537     SSM_CHD                          
                 CNC =          41.2662                   CNC =           1.3315     CNC                              

           TOTAL OUT =         167.3656             TOTAL OUT =           4.1672

            IN - OUT =       7.0746E-09              IN - OUT =       7.8834E-11

 PERCENT DISCREPANCY =           0.00     PERCENT DISCREPANCY =           0.00




         TIME SUMMARY AT END OF TIME STEP    4 IN STRESS PERIOD    1
                    SECONDS     MINUTES      HOURS       DAYS        YEARS
                    -----------------------------------------------------------
   TIME STEP LENGTH 8.64000E+05  14400.      240.00      10.000     2.73785E-02
 STRESS PERIOD TIME 3.45600E+06  57600.      960.00      40.000     0.10951    
         TOTAL TIME 3.45600E+06  57600.      960.00      40.000     0.10951    


end timestep


start timestep kper="1" kstp="5" mode="normal"

 UBDSV06 SAVING  SOURCE-SINK MIX IN MODEL S                PACKAGE S               CONNECTED TO MODEL S                PACKAGE SSM              ON UNIT   2118 AT TIME STEP      5, STRESS PERIOD      1
 UBDSV06 SAVING              CNC IN MODEL S                PACKAGE S               CONNECTED TO MODEL S                PACKAGE CNC              ON UNIT   2118 AT TIME STEP      5, STRESS PERIOD      1

 SSM PACKAGE (SSM) FLOW RATES   PERIOD      1   STEP        5
 ------------------------------------------------------------------------------------------------
   NUMBER   CELLID                   BOUND Q        SSM CONC          RATE         PACKAGE NAME  
 ------------------------------------------------------------------------------------------------
     1      (1,1,1)               2.08333321E-02  49.852151       1.0385864            CHD       
     2      (2,1,1)               2.08333321E-02  49.852151       1.0385864            CHD       
     3      (3,1,1)               2.08333321E-02  49.852151       1.0385864            CHD       
     4      (4,1,1)               0.0000000       0.0000000       0.0000000            CHD       
     5      (5,1,1)               0.0000000       0.0000000       0.0000000            CHD       
     6      (6,1,1)               0.0000000       0.0000000       0.0000000            CHD       
     7      (7,1,1)               0.0000000       0.0000000       0.0000000            CHD       
     8      (8,1,1)               0.0000000       0.0000000       0.0000000            CHD       
     9      (9,1,1)               0.0000000       0.0000000       0.0000000            CHD       
     10     (10,1,1)              0.0000000       0.0000000       0.0000000            CHD       
     11     (1,1,25)             -2.08333353E-02  7.4578817      -0.15537255           CHD       
     12     (2,1,25)             -2.08333353E-02  7.4578817      -0.15537255           CHD       
[...]
               21              22              23              24              25
 ................................................................................................................................................................
   1  7.457881730     8.199158785     9.274053839     10.10366878     10.59347723     10.85273931     10.98456438     11.05072833     11.08378410     11.10017780    
      11.10803215     11.11105958     11.11084830     11.10872753     11.10387416     11.09548196     11.08229066     11.06255464     11.03408635     10.99433664    
      10.94055134     10.87007708     10.78105305     10.67436506     10.56034347    

 CONCENTRATION WILL BE SAVED ON UNIT 2119 AT END OF TIME STEP  199, STRESS PERIOD    1


  MASS BUDGET FOR ENTIRE MODEL AT END OF TIME STEP  199, STRESS PERIOD   1
  ---------------------------------------------------------------------------------------------------

     CUMULATIVE MASS      M       RATES FOR THIS TIME STEP      M/T          PACKAGE NAME    
     ------------------                 ------------------------                     ----------------

           IN:                                      IN:
           ---                                      ---
     STORAGE-AQUEOUS =          59.0178       STORAGE-AQUEOUS =       2.3117E-09     MST                              
                 CHD =        6200.3611                   CHD =           3.1158     SSM_CHD                          
                 CNC =        1836.8164                   CNC =           0.9145     CNC                              

            TOTAL IN =        8096.1952              TOTAL IN =           4.0303

          OUT:                                     OUT:
          ----                                     ----
     STORAGE-AQUEOUS =        1311.5833       STORAGE-AQUEOUS =           0.1160     MST                              
                 CHD =        3412.4714                   CHD =           2.2001     SSM_CHD                          
                 CNC =        3372.1405                   CNC =           1.7143     CNC                              

           TOTAL OUT =        8096.1952             TOTAL OUT =           4.0303

            IN - OUT =      -1.9383E-06              IN - OUT =      -6.9124E-09

 PERCENT DISCREPANCY =          -0.00     PERCENT DISCREPANCY =          -0.00




         TIME SUMMARY AT END OF TIME STEP  199 IN STRESS PERIOD    1
                    SECONDS     MINUTES      HOURS       DAYS        YEARS
                    -----------------------------------------------------------
   TIME STEP LENGTH 8.64000E+05  14400.      240.00      10.000     2.73785E-02
 STRESS PERIOD TIME 1.71936E+08 2.86560E+06  47760.      1990.0      5.4483    
         TOTAL TIME 1.71936E+08 2.86560E+06  47760.      1990.0      5.4483    


end timestep


start timestep kper="1" kstp="200" mode="normal"

 UBDSV06 SAVING  SOURCE-SINK MIX IN MODEL S                PACKAGE S               CONNECTED TO MODEL S                PACKAGE SSM              ON UNIT   2118 AT TIME STEP    200, STRESS PERIOD      1
 UBDSV06 SAVING              CNC IN MODEL S                PACKAGE S               CONNECTED TO MODEL S                PACKAGE CNC              ON UNIT   2118 AT TIME STEP    200, STRESS PERIOD      1

 SSM PACKAGE (SSM) FLOW RATES   PERIOD      1   STEP      200
 ------------------------------------------------------------------------------------------------
   NUMBER   CELLID                   BOUND Q        SSM CONC          RATE         PACKAGE NAME  
 ------------------------------------------------------------------------------------------------
     1      (1,1,1)               2.08333330E-02  49.852151       1.0385865            CHD       
     2      (2,1,1)               2.08333330E-02  49.852151       1.0385865            CHD       
     3      (3,1,1)               2.08333330E-02  49.852151       1.0385865            CHD       
     4      (4,1,1)               0.0000000       0.0000000       0.0000000            CHD       
     5      (5,1,1)               0.0000000       0.0000000       0.0000000            CHD       
     6      (6,1,1)               0.0000000       0.0000000       0.0000000            CHD       
     7      (7,1,1)               0.0000000       0.0000000       0.0000000            CHD       
     8      (8,1,1)               0.0000000       0.0000000       0.0000000            CHD       
     9      (9,1,1)               0.0000000       0.0000000       0.0000000            CHD       
     10     (10,1,1)              0.0000000       0.0000000       0.0000000            CHD       
     11     (1,1,25)             -2.08333337E-02  10.579187      -0.22039974           CHD       
     12     (2,1,25)             -2.08333337E-02  10.579187      -0.22039974           CHD       
     13     (3,1,25)             -2.08333337E-02  10.579187      -0.22039974           CHD       
     14     (4,1,25)             -2.08333337E-02  10.579187      -0.22039973           CHD       
     15     (5,1,25)             -2.08333337E-02  10.579187      -0.22039973           CHD       
     16     (6,1,25)             -2.08333337E-02  10.579187      -0.22039973           CHD       
     17     (7,1,25)             -2.08333337E-02  10.579187      -0.22039973           CHD       
     18     (8,1,25)             -2.08333337E-02  10.579187      -0.22039973           CHD       
     19     (9,1,25)             -2.08333337E-02  10.579187      -0.22039973           CHD       
     20     (10,1,25)            -2.08333337E-02  10.579187      -0.22039973           CHD       
 ------------------------------------------------------------------------------------------------




 CNC PACKAGE (CNC) FLOW RATES   PERIOD      1   STEP      200
 -----------------------------------------------
   NUMBER   CELLID                    RATE      
 -----------------------------------------------
     1      (4,1,1)              -1.6151602     
     2      (5,1,1)               0.11736323    
     3      (6,1,1)               0.12928203    
     4      (7,1,1)               0.13692894    
     5      (8,1,1)               0.14169424    
     6      (9,1,1)               0.14445553    
     7      (10,1,1)              0.14572049    
 -----------------------------------------------



1
  CONCENTRATION IN LAYER   1 AT END OF TIME STEP 200 IN STRESS PERIOD    1
  ---------------------------------------------------------------------------

                1               2               3               4               5               6               7               8               9              10
               11              12              13              14              15              16              17              18              19              20
               21              22              23              24              25
 ................................................................................................................................................................
   1  22.91715445     16.72535910     13.48979144     12.21210388     11.65079261     11.38222879     11.24946675     11.18321443     11.15004250     11.13331676    
      11.12459927     11.11946094     11.11550563     11.11126392     11.10552817     11.09701051     11.08418637     11.06521027     11.03788155     10.99967453    
      10.94786275     10.87980334     10.79360799     10.69006094     10.57918719    
1
  CONCENTRATION IN LAYER   2 AT END OF TIME STEP 200 IN STRESS PERIOD    1
  ---------------------------------------------------------------------------

                1               2               3               4               5               6               7               8               9              10
               11              12              13              14              15              16              17              18              19              20
               21              22              23              24              25
 ................................................................................................................................................................
   1  20.61064203     15.70890657     13.16477809     12.09216104     11.59719809     11.35616576     11.23649884     11.17673249     11.14680058     11.13169562    
      11.12378798     11.11905068     11.11529708     11.11116046     11.10547909     11.09698824     11.08417652     11.06520595     11.03787964     10.99967368    
      10.94786236     10.87980316     10.79360791     10.69006090     10.57918717    
1
  CONCENTRATION IN LAYER   3 AT END OF TIME STEP 200 IN STRESS PERIOD    1
  ---------------------------------------------------------------------------

                1               2               3               4               5               6               7               8               9              10
               11              12              13              14              15              16              17              18              19              20
               21              22              23              24              25
 ................................................................................................................................................................
   1  15.68633720     13.88744587     12.58541548     11.87043641     11.49589489     11.30662735     11.21183162     11.16440238     11.14063390     11.12861204    
      11.12224501     11.11827000     11.11490006     11.11096369     11.10538600     11.09694599     11.08415782     11.06519773     11.03787601     10.99967205    
      10.94786163     10.87980282     10.79360776     10.69006083     10.57918713    
1
  CONCENTRATION IN LAYER   4 AT END OF TIME STEP 200 IN STRESS PERIOD    1
  ---------------------------------------------------------------------------

                1               2               3               4               5               6               7               8               9              10
               11              12              13              14              15              16              17              18              19              20
               21              22              23              24              25
 ................................................................................................................................................................
   1  7.457881730     11.77950949     11.86853817     11.57751160     11.35756345     11.23851488     11.17787978     11.14743002     11.13214583     11.12436798    
      11.12012194     11.11719502     11.11435266     11.11069280     11.10525817     11.09688807     11.08413217     11.06518643     11.03787101     10.99966982    
      10.94786061     10.87980235     10.79360754     10.69006073     10.57918709    
1
  CONCENTRATION IN LAYER   5 AT END OF TIME STEP 200 IN STRESS PERIOD    1
  ---------------------------------------------------------------------------

                1               2               3               4               5               6               7               8               9              10
               11              12              13              14              15              16              17              18              19              20
               21              22              23              24              25
 ................................................................................................................................................................
   1  7.457881730     10.37699649     11.17559402     11.23851456     11.19573408     11.15855364     11.13796867     11.12747583     11.12216695     11.11937904    
      11.11762799     11.11593055     11.11370696     11.11037392     11.10510841     11.09682037     11.08410214     11.06517318     11.03786514     10.99966719    
      10.94785942     10.87980181     10.79360729     10.69006062     10.57918703    
1
  CONCENTRATION IN LAYER   6 AT END OF TIME STEP 200 IN STRESS PERIOD    1
  ---------------------------------------------------------------------------

                1               2               3               4               5               6               7               8               9              10
               11              12              13              14              15              16              17              18              19              20
               21              22              23              24              25
 ................................................................................................................................................................
   1  7.457881730     9.461632460     10.55161678     10.90658340     11.02728749     11.07450157     11.09599874     11.10649242     11.11167392     11.11413462    
      11.11501185     11.11459993     11.11302159     11.11003709     11.10495163     11.09674971     11.08407074     11.06515928     11.03785897     10.99966442    
      10.94785817     10.87980123     10.79360702     10.69006049     10.57918697    
1
  CONCENTRATION IN LAYER   7 AT END OF TIME STEP 200 IN STRESS PERIOD    1
  ---------------------------------------------------------------------------

                1               2               3               4               5               6               7               8               9              10
               11              12              13              14              15              16              17              18              19              20
               21              22              23              24              25
 ................................................................................................................................................................
   1  7.457881730     8.874350026     10.03875702     10.60702122     10.86989087     10.99486164     11.05609474     11.08653367     11.10169364     11.10914548    
      11.11253429     11.11335110     11.11234612     11.10971293     11.10480331     11.09668311     11.08404104     11.06514608     11.03785309     10.99966179    
      10.94785698     10.87980068     10.79360677     10.69006038     10.57918691    
1
  CONCENTRATION IN LAYER   8 AT END OF TIME STEP 200 IN STRESS PERIOD    1
  ---------------------------------------------------------------------------

                1               2               3               4               5               6               7               8               9              10
               11              12              13              14              15              16              17              18              19              20
               21              22              23              24              25
 ................................................................................................................................................................
   1  7.457881730     8.508374710     9.653879512     10.36315655     10.73789722     10.92734197     11.02216273     11.06955410     11.09320324     11.10490112    
      11.11042196     11.11231999     11.11174804     11.10943301     11.10467796     11.09662699     11.08401593     11.06513488     11.03784810     10.99965955    
      10.94785597     10.87980022     10.79360655     10.69006028     10.57918686    
1
  CONCENTRATION IN LAYER   9 AT END OF TIME STEP 200 IN STRESS PERIOD    1
  ---------------------------------------------------------------------------

                1               2               3               4               5               6               7               8               9              10
               11              12              13              14              15              16              17              18              19              20
               21              22              23              24              25
 ................................................................................................................................................................
   1  7.457881730     8.296307590     9.399824154     10.19184292     10.64302245     10.87841690     10.99751828     11.05721691     11.08703423     11.10181727    
      11.10888595     11.11158263     11.11130411     11.10922770     11.10458736     11.09658654     11.08399777     11.06512675     11.03784447     10.99965793    
      10.94785523     10.87979988     10.79360640     10.69006021     10.57918682    
1
  CONCENTRATION IN LAYER  10 AT END OF TIME STEP 200 IN STRESS PERIOD    1
  ---------------------------------------------------------------------------

                1               2               3               4               5               6               7               8               9              10
               11              12              13              14              15              16              17              18              19              20
               21              22              23              24              25
 ................................................................................................................................................................
   1  7.457881730     8.199158787     9.274053844     10.10366879     10.59347730     10.85273953     10.98456512     11.05073062     11.08379086     11.10019595    
      11.10807808     11.11119803     11.11106802     11.10911937     11.10453993     11.09656539     11.08398825     11.06512249     11.03784257     10.99965707    
      10.94785484     10.87979971     10.79360631     10.69006018     10.57918680    

 CONCENTRATION WILL BE SAVED ON UNIT 2119 AT END OF TIME STEP  200, STRESS PERIOD    1


  MASS BUDGET FOR ENTIRE MODEL AT END OF TIME STEP  200, STRESS PERIOD   1
  ---------------------------------------------------------------------------------------------------

     CUMULATIVE MASS      M       RATES FOR THIS TIME STEP      M/T          PACKAGE NAME    
     ------------------                 ------------------------                     ----------------

           IN:                                      IN:
           ---                                      ---
     STORAGE-AQUEOUS =          59.0178       STORAGE-AQUEOUS =       2.3899E-09     MST                              
                 CHD =        6231.5187                   CHD =           3.1158     SSM_CHD                          
                 CNC =        1845.9619                   CNC =           0.9145     CNC                              

            TOTAL IN =        8136.4983              TOTAL IN =           4.0303

          OUT:                                     OUT:
          ----                                     ----
     STORAGE-AQUEOUS =        1312.7038       STORAGE-AQUEOUS =           0.1120     MST                              
                 CHD =        3434.5114                   CHD =           2.2040     SSM_CHD                          
                 CNC =        3389.2831                   CNC =           1.7143     CNC                              

           TOTAL OUT =        8136.4983             TOTAL OUT =           4.0303

            IN - OUT =      -2.0060E-06              IN - OUT =      -6.7723E-09

 PERCENT DISCREPANCY =          -0.00     PERCENT DISCREPANCY =          -0.00




         TIME SUMMARY AT END OF TIME STEP  200 IN STRESS PERIOD    1
                    SECONDS     MINUTES      HOURS       DAYS        YEARS
                    -----------------------------------------------------------
   TIME STEP LENGTH 8.64000E+05  14400.      240.00      10.000     2.73785E-02
 STRESS PERIOD TIME 1.72800E+08 2.88000E+06  48000.      2000.0      5.4757    
         TOTAL TIME 1.72800E+08 2.88000E+06  48000.      2000.0      5.4757    


end timestep

