                                   MODFLOW 6
                U.S. GEOLOGICAL SURVEY MODULAR HYDROLOGIC MODEL
                       GROUNDWATER TRANSPORT MODEL (GWT)
                VERSION 6.5.0.dev0+prt (preliminary) 10/07/2023
                               ***DEVELOP MODE***

   MODFLOW 6 compiled Oct 07 2023 02:19:02 with Intel(R) Fortran Intel(R) 64
   Compiler Classic for applications running on Intel(R) 64, Version 2021.7.0
                             Build 20220726_000000

This software is preliminary or provisional and is subject to 
revision. It is being provided to meet the need for timely best 
science. The software has not received final approval by the U.S. 
Geological Survey (USGS). No warranty, expressed or implied, is made 
by the USGS or the U.S. Government as to the functionality of the 
software and related material nor shall the fact of release 
constitute any such warranty. The software is provided on the 
condition that neither the USGS nor the U.S. Government shall be held 
liable for any damages resulting from the authorized or unauthorized 
use of the software.


As a work of the United States Government, this USGS product is 
in the public domain within the United States. You can copy, 
modify, distribute, and perform the work, even for commercial 
purposes, all without asking permission. Additionally, USGS 
waives copyright and related rights in the work worldwide 
through CC0 1.0 Universal Public Domain Dedication 
(https://creativecommons.org/publicdomain/zero/1.0/).

The following GNU Lesser General Public License (LGPL) libraries
are used in this USGS product:

    SPARSKIT version 2.0
      ilut, luson, and qsplit 
      (https://www-users.cse.umn.edu/~saad/software/SPARSKIT/)

    RCM - Reverse Cuthill McKee Ordering
      (https://people.math.sc.edu/Burkardt/f_src/rcm/rcm.html)

    BLAS - Basic Linear Algebra Subprograms Level 1
      (https://people.math.sc.edu/Burkardt/f_src/blas1_d/blas1_d.html)

    SPARSEKIT - Sparse Matrix Utility Package
      amux, dperm, dvperm, rperm, and cperm
      (https://people.sc.fsu.edu/~jburkardt/f77_src/sparsekit/sparsekit.html)

The following BSD-3 License libraries are used in this USGS product:

    Modern Fortran DAG Library
      Copyright (c) 2018, Jacob Williams
      All rights reserved.
      (https://github.com/jacobwilliams/daglib)

MODFLOW 6 compiler options: /Isrc\libmf6core.a.p /Isrc /I..\src
/Isrc\libmf6_external.a.p /MTd /nologo /warn:general /warn:truncated_source
/stand:f08 /Zi /traceback /O2 /fpe:0 /heap-arrays:0 /traceback /fpp
/Qdiag-disable:7416 /Qdiag-disable:7025 /Qdiag-disable:5268
/Fdsrc\libmf6core.a.p\Utilities_compilerversion.F90.pdb
/module:src\libmf6core.a.p
/Fosrc/libmf6core.a.p/Utilities_compilerversion.F90.obj /c

System command used to initiate simulation:
c:\Users\portega\anaconda3\envs\mf6rtm\python.exe -m ipykernel_launcher --f=c:\Users\portega\AppData\Roaming\jupyter\runtime\kernel-v2-17404iCBvKc1FbHvz.json

MODFLOW was compiled using uniform precision.

Real Variables
  KIND: 8
  TINY (smallest non-zero value):    2.225074-308
  HUGE (largest value):    1.797693+308
  PRECISION: 15
  SIZE IN BITS: 64

Integer Variables
  KIND: 4
  HUGE (largest value): 2147483647
  SIZE IN BITS: 32

Long Integer Variables
  KIND: 8
  HUGE (largest value): 9223372036854775807
  SIZE IN BITS: 64

Logical Variables
  KIND: 4
  SIZE IN BITS: 32
 
 NAMEFILE OPTIONS:
 END NAMEFILE OPTIONS:

 DIS -- STRUCTURED GRID DISCRETIZATION PACKAGE, VERSION 2 : 3/27/2014 - INPUT READ FROM MEMPATH: __INPUT__/S/DIS                                   


 DSP-- DISPERSION PACKAGE, VERSION 1, 1/24/2018 INPUT READ FROM MEMPATH: __INPUT__/S/DSP                                   


 Setting Discretization Options
    Model length unit [0=UND, 1=FEET, 2=METERS, 3=CENTIMETERS] set as 2
 End Setting Discretization Options

 Setting Discretization Dimensions
    NLAY = 10
    NROW = 1
    NCOL = 25
 End Setting Discretization Dimensions

 Setting Discretization Griddata
    DELR set from input file
    DELC set from input file
    TOP set from input file
    BOTM set from input file
    IDOMAIN set from input file
 End Setting Discretization Griddata


 FMI -- FLOW MODEL INTERFACE,' VERSION 2, 8/17/2023
  FLOWS PROVIDED BY A GWF MODEL IN THIS SIMULATION

 ADV-- ADVECTION PACKAGE, VERSION 1, 8/25/2017 INPUT READ FROM UNIT 6398


 # File generated by Flopy version 3.5.0.dev0 on 07/12/2024 at 09:44:05.
 PROCESSING ADVECTION OPTIONS
    ADVECTION WEIGHTING SCHEME HAS BEEN SET TO: TVD
 END OF ADVECTION OPTIONS
 Setting DSP Options
    XT3D formulation [0=INACTIVE, 1=ACTIVE, 3=ACTIVE RHS] set to: 0
 End Setting DSP Options

 Setting DSP Griddata
    ALH set from input file
    ATH1 set from input file
    ATV set from input file
 End Setting DSP Griddata


 CNC   -- CNC PACKAGE, VERSION 8, 2/22/2014 INPUT READ FROM UNIT 6432
 # File generated by Flopy version 3.5.0.dev0 on 07/12/2024 at 09:44:05.

 PROCESSING CNC OPTIONS
    CNC FLOWS WILL BE PRINTED TO LISTING FILE.
    FLOWS WILL BE SAVED TO BUDGET FILE SPECIFIED IN OUTPUT CONTROL
 END OF CNC OPTIONS

 PROCESSING CNC DIMENSIONS
    MAXBOUND =       7
 END OF CNC DIMENSIONS

 IC -- INITIAL CONDITIONS PACKAGE, VERSION 8, 3/28/2015 INPUT READ FROM UNIT 6396
 # File generated by Flopy version 3.5.0.dev0 on 07/12/2024 at 09:44:05.
 PROCESSING GRIDDATA

 OPENED S.ic_strt_layer1.txt
 FILE TYPE:OPEN/CLOSE   UNIT 6698   STATUS:OLD                 
 FORMAT:FORMATTED              ACCESS:SEQUENTIAL          
 ACTION:READ                


 OPENED S.ic_strt_layer2.txt
 FILE TYPE:OPEN/CLOSE   UNIT 6699   STATUS:OLD                 
 FORMAT:FORMATTED              ACCESS:SEQUENTIAL          
 ACTION:READ                


 OPENED S.ic_strt_layer3.txt
 FILE TYPE:OPEN/CLOSE   UNIT 6700   STATUS:OLD                 
 FORMAT:FORMATTED              ACCESS:SEQUENTIAL          
 ACTION:READ                


 OPENED S.ic_strt_layer4.txt
 FILE TYPE:OPEN/CLOSE   UNIT 6701   STATUS:OLD                 
 FORMAT:FORMATTED              ACCESS:SEQUENTIAL          
 ACTION:READ                


 OPENED S.ic_strt_layer5.txt
 FILE TYPE:OPEN/CLOSE   UNIT 6702   STATUS:OLD                 
 FORMAT:FORMATTED              ACCESS:SEQUENTIAL          
 ACTION:READ                


 OPENED S.ic_strt_layer6.txt
 FILE TYPE:OPEN/CLOSE   UNIT 6703   STATUS:OLD                 
 FORMAT:FORMATTED              ACCESS:SEQUENTIAL          
 ACTION:READ                


 OPENED S.ic_strt_layer7.txt
 FILE TYPE:OPEN/CLOSE   UNIT 6704   STATUS:OLD                 
 FORMAT:FORMATTED              ACCESS:SEQUENTIAL          
 ACTION:READ                


 OPENED S.ic_strt_layer8.txt
 FILE TYPE:OPEN/CLOSE   UNIT 6705   STATUS:OLD                 
 FORMAT:FORMATTED              ACCESS:SEQUENTIAL          
 ACTION:READ                


 OPENED S.ic_strt_layer9.txt
 FILE TYPE:OPEN/CLOSE   UNIT 6706   STATUS:OLD                 
 FORMAT:FORMATTED              ACCESS:SEQUENTIAL          
 ACTION:READ                


 OPENED S.ic_strt_layer10.txt
 FILE TYPE:OPEN/CLOSE   UNIT 6707   STATUS:OLD                 
 FORMAT:FORMATTED              ACCESS:SEQUENTIAL          
 ACTION:READ                

 END PROCESSING GRIDDATA

 MST -- MOBILE STORAGE AND TRANSFER PACKAGE, VERSION 1, 7/29/2020 INPUT READ FROM UNIT 6397


 # File generated by Flopy version 3.5.0.dev0 on 07/12/2024 at 09:44:05.
 PROCESSING MOBILE STORAGE AND TRANSFER OPTIONS
 END OF MOBILE STORAGE AND TRANSFER OPTIONS
 PROCESSING GRIDDATA

 OPENED S.mst_porosity.txt
 FILE TYPE:OPEN/CLOSE   UNIT 6708   STATUS:OLD                 
 FORMAT:FORMATTED              ACCESS:SEQUENTIAL          
 ACTION:READ                

 END PROCESSING GRIDDATA

 SSM -- SOURCE-SINK MIXING PACKAGE, VERSION 1, 8/25/2017 INPUT READ FROM UNIT 6430


 # File generated by Flopy version 3.5.0.dev0 on 07/12/2024 at 09:44:05.
 PROCESSING SSM OPTIONS
    SSM FLOW INFORMATION WILL BE PRINTED TO LISTING FILE WHENEVER ICBCFL IS NOT ZERO.
    CELL-BY-CELL FLOW INFORMATION WILL BE SAVED TO BINARY FILE WHENEVER ICBCFL IS NOT ZERO.
 END OF SSM OPTIONS

 OPENED S.ssm_sources.txt
 FILE TYPE:OPEN/CLOSE   UNIT 6709   STATUS:OLD                 
 FORMAT:FORMATTED              ACCESS:SEQUENTIAL          
 ACTION:READ                

 PROCESSING SOURCES
 AUX SOURCE DETECTED.
    USING AUX COLUMN 13 IN PACKAGE CHD
 END PROCESSING SOURCES
 OPTIONAL FILEINPUT BLOCK NOT FOUND.  CONTINUING.
      THE LAST TIME STEP WILL BE PRINTED
      THE LAST TIME STEP WILL BE PRINTED
 # File generated by Flopy version 3.5.0.dev0 on 07/12/2024 at 09:44:05.

 PROCESSING OC OPTIONS

    BUDGET INFORMATION WILL BE WRITTEN TO:
      UNIT NUMBER: 6710
      FILE NAME: S.cbb

 OPENED S.cbb
 FILE TYPE:DATA(BINARY)   UNIT 6710   STATUS:REPLACE             
 FORMAT:UNFORMATTED            ACCESS:STREAM              
 ACTION:READWRITE           

    CONCENTRATION INFORMATION WILL BE WRITTEN TO:
      UNIT NUMBER: 6711
      FILE NAME: S.ucn

 OPENED S.ucn
 FILE TYPE:DATA(BINARY)   UNIT 6711   STATUS:REPLACE             
 FORMAT:UNFORMATTED            ACCESS:STREAM              
 ACTION:READWRITE           

 END OF OC OPTIONS

start timestep kper="1" kstp="1" mode="normal"


 BEGIN READING OUTPUT CONTROL FOR STRESS PERIOD 1
      ALL TIME STEPS WILL BE SAVED
      ALL TIME STEPS WILL BE SAVED
      ALL TIME STEPS WILL BE PRINTED
      ALL TIME STEPS WILL BE PRINTED

 END READING OUTPUT CONTROL FOR STRESS PERIOD 1

 OPENED S.cnc_stress_period_data_1.txt
 FILE TYPE:OPEN/CLOSE   UNIT 6738   STATUS:OLD                 
 FORMAT:FORMATTED              ACCESS:SEQUENTIAL          
 ACTION:READ                

 UBDSV06 SAVING  SOURCE-SINK MIX IN MODEL S                PACKAGE S               CONNECTED TO MODEL S                PACKAGE SSM              ON UNIT   6710 AT TIME STEP      1, STRESS PERIOD      1
 UBDSV06 SAVING              CNC IN MODEL S                PACKAGE S               CONNECTED TO MODEL S                PACKAGE CNC              ON UNIT   6710 AT TIME STEP      1, STRESS PERIOD      1

 SSM PACKAGE (SSM) FLOW RATES   PERIOD      1   STEP        1
 ------------------------------------------------------------------------------------------------
   NUMBER   CELLID                   BOUND Q        SSM CONC          RATE         PACKAGE NAME  
 ------------------------------------------------------------------------------------------------
     1      (1,1,1)               2.08333361E-02  49.852151       1.0385866            CHD       
     2      (2,1,1)               2.08333361E-02  49.852151       1.0385866            CHD       
     3      (3,1,1)               2.08333361E-02  49.852151       1.0385866            CHD       
     4      (4,1,1)               0.0000000       0.0000000       0.0000000            CHD       
     5      (5,1,1)               0.0000000       0.0000000       0.0000000            CHD       
     6      (6,1,1)               0.0000000       0.0000000       0.0000000            CHD       
     7      (7,1,1)               0.0000000       0.0000000       0.0000000            CHD       
     8      (8,1,1)               0.0000000       0.0000000       0.0000000            CHD       
     9      (9,1,1)               0.0000000       0.0000000       0.0000000            CHD       
     10     (10,1,1)              0.0000000       0.0000000       0.0000000            CHD       
     11     (1,1,25)             -2.08333402E-02  7.4578817      -0.15537259           CHD       
     12     (2,1,25)             -2.08333402E-02  7.4578817      -0.15537259           CHD       
     13     (3,1,25)             -2.08333402E-02  7.4578817      -0.15537259           CHD       
     14     (4,1,25)             -2.08333403E-02  7.4578817      -0.15537259           CHD       
     15     (5,1,25)             -2.08333403E-02  7.4578817      -0.15537259           CHD       
     16     (6,1,25)             -2.08333403E-02  7.4578817      -0.15537259           CHD       
     17     (7,1,25)             -2.08333403E-02  7.4578817      -0.15537259           CHD       
     18     (8,1,25)             -2.08333403E-02  7.4578817      -0.15537259           CHD       
     19     (9,1,25)             -2.08333403E-02  7.4578817      -0.15537259           CHD       
     20     (10,1,25)            -2.08333403E-02  7.4578817      -0.15537259           CHD       
 ------------------------------------------------------------------------------------------------




 CNC PACKAGE (CNC) FLOW RATES   PERIOD      1   STEP        1
 -----------------------------------------------
   NUMBER   CELLID                    RATE      
 -----------------------------------------------
     1      (4,1,1)              -0.46954876    
     2      (5,1,1)               0.15432818    
     3      (6,1,1)               0.15494927    
     4      (7,1,1)               0.15520032    
     5      (8,1,1)               0.15530173    
     6      (9,1,1)               0.15534200    
     7      (10,1,1)              0.15535606    
 -----------------------------------------------



1
  CONCENTRATION IN LAYER   1 AT END OF TIME STEP   1 IN STRESS PERIOD    1
  ---------------------------------------------------------------------------

                1               2               3               4               5               6               7               8               9              10
               11              12              13              14              15              16              17              18              19              20
               21              22              23              24              25
 ................................................................................................................................................................
   1  12.08396574     8.258753375     7.533181591     7.464559249     7.458483245     7.457936821     7.457886826     7.457882190     7.457881781     7.457881768    
      7.457881765     7.457881743     7.457881715     7.457881705     7.457881708     7.457881713     7.457881711     7.457881705     7.457881702     7.457881703    
      7.457881708     7.457881715     7.457881721     7.457881729     7.457881731    
1
  CONCENTRATION IN LAYER   2 AT END OF TIME STEP   1 IN STRESS PERIOD    1
  ---------------------------------------------------------------------------

                1               2               3               4               5               6               7               8               9              10
               11              12              13              14              15              16              17              18              19              20
               21              22              23              24              25
 ................................................................................................................................................................
   1  11.65495105     8.159701579     7.524885902     7.463986379     7.458442274     7.457933727     7.457886576     7.457882157     7.457881783     7.457881790    
      7.457881785     7.457881746     7.457881701     7.457881685     7.457881692     7.457881700     7.457881696     7.457881688     7.457881682     7.457881686    
      7.457881694     7.457881705     7.457881715     7.457881728     7.457881731    
1
  CONCENTRATION IN LAYER   3 AT END OF TIME STEP   1 IN STRESS PERIOD    1
  ---------------------------------------------------------------------------

                1               2               3               4               5               6               7               8               9              10
               11              12              13              14              15              16              17              18              19              20
               21              22              23              24              25
 ................................................................................................................................................................
   1  10.44509968     7.950246559     7.510432799     7.463014942     7.458370355     7.457928129     7.457886114     7.457882096     7.457881787     7.457881824    
      7.457881819     7.457881752     7.457881678     7.457881655     7.457881668     7.457881681     7.457881675     7.457881660     7.457881652     7.457881658    
      7.457881673     7.457881690     7.457881706     7.457881726     7.457881731    
1
  CONCENTRATION IN LAYER   4 AT END OF TIME STEP   1 IN STRESS PERIOD    1
  ---------------------------------------------------------------------------

                1               2               3               4               5               6               7               8               9              10
               11              12              13              14              15              16              17              18              19              20
               21              22              23              24              25
 ................................................................................................................................................................
   1  7.457881730     7.656345449     7.495897463     7.461935192     7.458282204     7.457920954     7.457885510     7.457882025     7.457881790     7.457881855    
      7.457881850     7.457881759     7.457881659     7.457881630     7.457881650     7.457881669     7.457881660     7.457881638     7.457881627     7.457881635    
      7.457881654     7.457881678     7.457881698     7.457881723     7.457881731    
1
  CONCENTRATION IN LAYER   5 AT END OF TIME STEP   1 IN STRESS PERIOD    1
  ---------------------------------------------------------------------------

                1               2               3               4               5               6               7               8               9              10
               11              12              13              14              15              16              17              18              19              20
               21              22              23              24              25
 ................................................................................................................................................................
   1  7.457881730     7.538090283     7.480155584     7.460761849     7.458188930     7.457913215     7.457884849     7.457881955     7.457881791     7.457881875    
      7.457881869     7.457881763     7.457881649     7.457881617     7.457881642     7.457881664     7.457881653     7.457881627     7.457881614     7.457881622    
      7.457881644     7.457881670     7.457881692     7.457881721     7.457881731    
1
  CONCENTRATION IN LAYER   6 AT END OF TIME STEP   1 IN STRESS PERIOD    1
  ---------------------------------------------------------------------------

                1               2               3               4               5               6               7               8               9              10
               11              12              13              14              15              16              17              18              19              20
               21              22              23              24              25
 ................................................................................................................................................................
   1  7.457881730     7.490390058     7.469726441     7.459759007     7.458103319     7.457905850     7.457884207     7.457881895     7.457881789     7.457881881    
      7.457881875     7.457881766     7.457881647     7.457881615     7.457881642     7.457881665     7.457881653     7.457881626     7.457881611     7.457881619    
      7.457881641     7.457881668     7.457881690     7.457881719     7.457881731    
1
  CONCENTRATION IN LAYER   7 AT END OF TIME STEP   1 IN STRESS PERIOD    1
  ---------------------------------------------------------------------------

                1               2               3               4               5               6               7               8               9              10
               11              12              13              14              15              16              17              18              19              20
               21              22              23              24              25
 ................................................................................................................................................................
   1  7.457881730     7.471109497     7.463849644     7.459031782     7.458034096     7.457899570     7.457883647     7.457881848     7.457881784     7.457881876    
      7.457881871     7.457881765     7.457881651     7.457881620     7.457881646     7.457881669     7.457881657     7.457881630     7.457881615     7.457881623    
      7.457881644     7.457881669     7.457881690     7.457881719     7.457881730    
1
  CONCENTRATION IN LAYER   8 AT END OF TIME STEP   1 IN STRESS PERIOD    1
  ---------------------------------------------------------------------------

                1               2               3               4               5               6               7               8               9              10
               11              12              13              14              15              16              17              18              19              20
               21              22              23              24              25
 ................................................................................................................................................................
   1  7.457881730     7.463321238     7.460815048     7.458563689     7.457984205     7.457894771     7.457883209     7.457881818     7.457881778     7.457881862    
      7.457881858     7.457881763     7.457881660     7.457881631     7.457881654     7.457881674     7.457881664     7.457881640     7.457881626     7.457881633    
      7.457881651     7.457881674     7.457881693     7.457881720     7.457881731    
1
  CONCENTRATION IN LAYER   9 AT END OF TIME STEP   1 IN STRESS PERIOD    1
  ---------------------------------------------------------------------------

                1               2               3               4               5               6               7               8               9              10
               11              12              13              14              15              16              17              18              19              20
               21              22              23              24              25
 ................................................................................................................................................................
   1  7.457881730     7.460228877     7.459366473     7.458296660     7.457952807     7.457891585     7.457882916     7.457881807     7.457881771     7.457881837    
      7.457881834     7.457881758     7.457881674     7.457881649     7.457881667     7.457881684     7.457881676     7.457881657     7.457881645     7.457881650    
      7.457881665     7.457881684     7.457881700     7.457881722     7.457881731    
1
  CONCENTRATION IN LAYER  10 AT END OF TIME STEP   1 IN STRESS PERIOD    1
  ---------------------------------------------------------------------------

                1               2               3               4               5               6               7               8               9              10
               11              12              13              14              15              16              17              18              19              20
               21              22              23              24              25
 ................................................................................................................................................................
   1  7.457881730     7.459149101     7.458794596     7.458177748     7.457937826     7.457889993     7.457882779     7.457881819     7.457881760     7.457881792    
      7.457881791     7.457881750     7.457881699     7.457881683     7.457881692     7.457881702     7.457881698     7.457881688     7.457881680     7.457881683    
      7.457881691     7.457881703     7.457881712     7.457881725     7.457881731    

 CONCENTRATION WILL BE SAVED ON UNIT 6711 AT END OF TIME STEP    1, STRESS PERIOD    1


  MASS BUDGET FOR ENTIRE MODEL AT END OF TIME STEP    1, STRESS PERIOD   1
  ---------------------------------------------------------------------------------------------------

     CUMULATIVE MASS      M       RATES FOR THIS TIME STEP      M/T          PACKAGE NAME    
     ------------------                 ------------------------                     ----------------

           IN:                                      IN:
           ---                                      ---
     STORAGE-AQUEOUS =       9.9209E-06       STORAGE-AQUEOUS =       9.9209E-07     MST                              
                 CHD =          31.1576                   CHD =           3.1158     SSM_CHD                          
                 CNC =          10.8327                   CNC =           1.0833     CNC                              

            TOTAL IN =          41.9903              TOTAL IN =           4.1990

          OUT:                                     OUT:
          ----                                     ----
     STORAGE-AQUEOUS =          20.2296       STORAGE-AQUEOUS =           2.0230     MST                              
                 CHD =          15.5373                   CHD =           1.5537     SSM_CHD                          
                 CNC =           6.2234                   CNC =           0.6223     CNC                              

           TOTAL OUT =          41.9903             TOTAL OUT =           4.1990

            IN - OUT =       1.1995E-09              IN - OUT =       1.1995E-10

 PERCENT DISCREPANCY =           0.00     PERCENT DISCREPANCY =           0.00




         TIME SUMMARY AT END OF TIME STEP    1 IN STRESS PERIOD    1
                    SECONDS     MINUTES      HOURS       DAYS        YEARS
                    -----------------------------------------------------------
   TIME STEP LENGTH 8.64000E+05  14400.      240.00      10.000     2.73785E-02
 STRESS PERIOD TIME 8.64000E+05  14400.      240.00      10.000     2.73785E-02
         TOTAL TIME 8.64000E+05  14400.      240.00      10.000     2.73785E-02


end timestep


start timestep kper="1" kstp="2" mode="normal"

 UBDSV06 SAVING  SOURCE-SINK MIX IN MODEL S                PACKAGE S               CONNECTED TO MODEL S                PACKAGE SSM              ON UNIT   6710 AT TIME STEP      2, STRESS PERIOD      1
 UBDSV06 SAVING              CNC IN MODEL S                PACKAGE S               CONNECTED TO MODEL S                PACKAGE CNC              ON UNIT   6710 AT TIME STEP      2, STRESS PERIOD      1

 SSM PACKAGE (SSM) FLOW RATES   PERIOD      1   STEP        2
 ------------------------------------------------------------------------------------------------
   NUMBER   CELLID                   BOUND Q        SSM CONC          RATE         PACKAGE NAME  
 ------------------------------------------------------------------------------------------------
     1      (1,1,1)               2.08333319E-02  49.852151       1.0385864            CHD       
     2      (2,1,1)               2.08333319E-02  49.852151       1.0385864            CHD       
     3      (3,1,1)               2.08333319E-02  49.852151       1.0385864            CHD       
     4      (4,1,1)               0.0000000       0.0000000       0.0000000            CHD       
     5      (5,1,1)               0.0000000       0.0000000       0.0000000            CHD       
     6      (6,1,1)               0.0000000       0.0000000       0.0000000            CHD       
     7      (7,1,1)               0.0000000       0.0000000       0.0000000            CHD       
     8      (8,1,1)               0.0000000       0.0000000       0.0000000            CHD       
     9      (9,1,1)               0.0000000       0.0000000       0.0000000            CHD       
     10     (10,1,1)              0.0000000       0.0000000       0.0000000            CHD       
     11     (1,1,25)             -2.08333370E-02  7.4578817      -0.15537256           CHD       
     12     (2,1,25)             -2.08333370E-02  7.4578817      -0.15537256           CHD       
     13     (3,1,25)             -2.08333370E-02  7.4578817      -0.15537256           CHD       
     14     (4,1,25)             -2.08333370E-02  7.4578817      -0.15537256           CHD       
     15     (5,1,25)             -2.08333370E-02  7.4578817      -0.15537256           CHD       
     16     (6,1,25)             -2.08333370E-02  7.4578817      -0.15537256           CHD       
     17     (7,1,25)             -2.08333370E-02  7.4578817      -0.15537256           CHD       
     18     (8,1,25)             -2.08333370E-02  7.4578817      -0.15537256           CHD       
     19     (9,1,25)             -2.08333370E-02  7.4578817      -0.15537256           CHD       
     20     (10,1,25)            -2.08333370E-02  7.4578817      -0.15537256           CHD       
 ------------------------------------------------------------------------------------------------




 CNC PACKAGE (CNC) FLOW RATES   PERIOD      1   STEP        2
 -----------------------------------------------
   NUMBER   CELLID                    RATE      
 -----------------------------------------------
     1      (4,1,1)              -0.82703588    
     2      (5,1,1)               0.15221563    
     3      (6,1,1)               0.15395155    
     4      (7,1,1)               0.15473587    
     5      (8,1,1)               0.15508572    
     6      (9,1,1)               0.15523695    
     7      (10,1,1)              0.15529313    
 -----------------------------------------------



1
  CONCENTRATION IN LAYER   1 AT END OF TIME STEP   2 IN STRESS PERIOD    1
  ---------------------------------------------------------------------------

                1               2               3               4               5               6               7               8               9              10
               11              12              13              14              15              16              17              18              19              20
               21              22              23              24              25
 ................................................................................................................................................................
   1  15.31800756     9.364523310     7.709523819     7.486866388     7.461101776     7.458232820     7.457919524     7.457885770     7.457882184     7.457881806    
      7.457881755     7.457881734     7.457881713     7.457881698     7.457881690     7.457881685     7.457881680     7.457881676     7.457881675     7.457881679    
      7.457881687     7.457881697     7.457881709     7.457881724     7.457881730    
1
  CONCENTRATION IN LAYER   2 AT END OF TIME STEP   2 IN STRESS PERIOD    1
  ---------------------------------------------------------------------------

                1               2               3               4               5               6               7               8               9              10
               11              12              13              14              15              16              17              18              19              20
               21              22              23              24              25
 ................................................................................................................................................................
   1  14.40996224     9.114096754     7.682879244     7.484601545     7.460905055     7.458215000     7.457917893     7.457885639     7.457882185     7.457881805    
      7.457881747     7.457881726     7.457881707     7.457881691     7.457881678     7.457881667     7.457881659     7.457881656     7.457881657     7.457881663    
      7.457881673     7.457881687     7.457881702     7.457881722     7.457881730    
1
  CONCENTRATION IN LAYER   3 AT END OF TIME STEP   2 IN STRESS PERIOD    1
  ---------------------------------------------------------------------------

                1               2               3               4               5               6               7               8               9              10
               11              12              13              14              15              16              17              18              19              20
               21              22              23              24              25
 ................................................................................................................................................................
   1  12.14005733     8.621224850     7.637482408     7.480749556     7.460555857     7.458182454     7.457914870     7.457885389     7.457882181     7.457881801    
      7.457881732     7.457881715     7.457881700     7.457881682     7.457881659     7.457881639     7.457881627     7.457881625     7.457881629     7.457881639    
      7.457881652     7.457881670     7.457881690     7.457881719     7.457881729    
1
  CONCENTRATION IN LAYER   4 AT END OF TIME STEP   2 IN STRESS PERIOD    1
  ---------------------------------------------------------------------------

                1               2               3               4               5               6               7               8               9              10
               11              12              13              14              15              16              17              18              19              20
               21              22              23              24              25
 ................................................................................................................................................................
   1  7.457881730     7.992043041     7.590762143     7.476338794     7.460118721     7.458140205     7.457910863     7.457885037     7.457882166     7.457881798    
      7.457881721     7.457881707     7.457881695     7.457881674     7.457881643     7.457881615     7.457881600     7.457881598     7.457881605     7.457881617    
      7.457881633     7.457881655     7.457881679     7.457881715     7.457881729    
1
  CONCENTRATION IN LAYER   5 AT END OF TIME STEP   2 IN STRESS PERIOD    1
  ---------------------------------------------------------------------------

                1               2               3               4               5               6               7               8               9              10
               11              12              13              14              15              16              17              18              19              20
               21              22              23              24              25
 ................................................................................................................................................................
   1  7.457881730     7.700331291     7.540830719     7.471510172     7.459647981     7.458093925     7.457906377     7.457884621     7.457882137     7.457881795    
      7.457881717     7.457881704     7.457881694     7.457881671     7.457881635     7.457881602     7.457881584     7.457881583     7.457881590     7.457881603    
      7.457881621     7.457881645     7.457881672     7.457881711     7.457881729    
1
  CONCENTRATION IN LAYER   6 AT END OF TIME STEP   2 IN STRESS PERIOD    1
  ---------------------------------------------------------------------------

                1               2               3               4               5               6               7               8               9              10
               11              12              13              14              15              16              17              18              19              20
               21              22              23              24              25
 ................................................................................................................................................................
   1  7.457881730     7.567012342     7.505254670     7.467200377     7.459202824     7.458048957     7.457901916     7.457884189     7.457882098     7.457881792    
      7.457881717     7.457881705     7.457881694     7.457881671     7.457881633     7.457881599     7.457881580     7.457881579     7.457881586     7.457881599    
      7.457881617     7.457881641     7.457881668     7.457881709     7.457881728    
1
  CONCENTRATION IN LAYER   7 AT END OF TIME STEP   2 IN STRESS PERIOD    1
  ---------------------------------------------------------------------------

                1               2               3               4               5               6               7               8               9              10
               11              12              13              14              15              16              17              18              19              20
               21              22              23              24              25
 ................................................................................................................................................................
   1  7.457881730     7.506777149     7.483541802     7.463900942     7.458829168     7.458009654     7.457897915     7.457883787     7.457882056     7.457881789    
      7.457881719     7.457881707     7.457881696     7.457881673     7.457881637     7.457881604     7.457881586     7.457881584     7.457881590     7.457881603    
      7.457881620     7.457881643     7.457881669     7.457881709     7.457881728    
1
  CONCENTRATION IN LAYER   8 AT END OF TIME STEP   2 IN STRESS PERIOD    1
  ---------------------------------------------------------------------------

                1               2               3               4               5               6               7               8               9              10
               11              12              13              14              15              16              17              18              19              20
               21              22              23              24              25
 ................................................................................................................................................................
   1  7.457881730     7.479908336     7.471449513     7.461660237     7.458549479     7.457978873     7.457894693     7.457883450     7.457882015     7.457881784    
      7.457881723     7.457881711     7.457881700     7.457881678     7.457881645     7.457881616     7.457881599     7.457881597     7.457881602     7.457881613    
      7.457881629     7.457881650     7.457881673     7.457881710     7.457881728    
1
  CONCENTRATION IN LAYER   9 AT END OF TIME STEP   2 IN STRESS PERIOD    1
  ---------------------------------------------------------------------------

                1               2               3               4               5               6               7               8               9              10
               11              12              13              14              15              16              17              18              19              20
               21              22              23              24              25
 ................................................................................................................................................................
   1  7.457881730     7.468294055     7.465287086     7.460321821     7.458367742     7.457958038     7.457892451     7.457883200     7.457881976     7.457881782    
      7.457881730     7.457881717     7.457881703     7.457881683     7.457881657     7.457881634     7.457881620     7.457881617     7.457881621     7.457881630    
      7.457881643     7.457881661     7.457881681     7.457881713     7.457881728    
1
  CONCENTRATION IN LAYER  10 AT END OF TIME STEP   2 IN STRESS PERIOD    1
  ---------------------------------------------------------------------------

                1               2               3               4               5               6               7               8               9              10
               11              12              13              14              15              16              17              18              19              20
               21              22              23              24              25
 ................................................................................................................................................................
   1  7.457881730     7.463979515     7.462737733     7.459706669     7.458279333     7.457947607     7.457891283     7.457883034     7.457881939     7.457881791    
      7.457881756     7.457881732     7.457881704     7.457881685     7.457881672     7.457881662     7.457881652     7.457881646     7.457881645     7.457881651    
      7.457881662     7.457881677     7.457881693     7.457881716     7.457881729    

 CONCENTRATION WILL BE SAVED ON UNIT 6711 AT END OF TIME STEP    2, STRESS PERIOD    1


  MASS BUDGET FOR ENTIRE MODEL AT END OF TIME STEP    2, STRESS PERIOD   1
  ---------------------------------------------------------------------------------------------------

     CUMULATIVE MASS      M       RATES FOR THIS TIME STEP      M/T          PACKAGE NAME    
     ------------------                 ------------------------                     ----------------

           IN:                                      IN:
           ---                                      ---
     STORAGE-AQUEOUS =       1.6450E-05       STORAGE-AQUEOUS =       6.5292E-07     MST                              
                 CHD =          62.3152                   CHD =           3.1158     SSM_CHD                          
                 CNC =          21.5820                   CNC =           1.0749     CNC                              

            TOTAL IN =          83.8972              TOTAL IN =           4.1907

          OUT:                                     OUT:
          ----                                     ----
     STORAGE-AQUEOUS =          36.8448       STORAGE-AQUEOUS =           1.6615     MST                              
                 CHD =          31.0745                   CHD =           1.5537     SSM_CHD                          
                 CNC =          15.9779                   CNC =           0.9755     CNC                              

           TOTAL OUT =          83.8972             TOTAL OUT =           4.1907

            IN - OUT =       3.0033E-09              IN - OUT =       1.8038E-10

 PERCENT DISCREPANCY =           0.00     PERCENT DISCREPANCY =           0.00




         TIME SUMMARY AT END OF TIME STEP    2 IN STRESS PERIOD    1
                    SECONDS     MINUTES      HOURS       DAYS        YEARS
                    -----------------------------------------------------------
   TIME STEP LENGTH 8.64000E+05  14400.      240.00      10.000     2.73785E-02
 STRESS PERIOD TIME 1.72800E+06  28800.      480.00      20.000     5.47570E-02
         TOTAL TIME 1.72800E+06  28800.      480.00      20.000     5.47570E-02


end timestep


start timestep kper="1" kstp="3" mode="normal"

 UBDSV06 SAVING  SOURCE-SINK MIX IN MODEL S                PACKAGE S               CONNECTED TO MODEL S                PACKAGE SSM              ON UNIT   6710 AT TIME STEP      3, STRESS PERIOD      1
 UBDSV06 SAVING              CNC IN MODEL S                PACKAGE S               CONNECTED TO MODEL S                PACKAGE CNC              ON UNIT   6710 AT TIME STEP      3, STRESS PERIOD      1

 SSM PACKAGE (SSM) FLOW RATES   PERIOD      1   STEP        3
 ------------------------------------------------------------------------------------------------
   NUMBER   CELLID                   BOUND Q        SSM CONC          RATE         PACKAGE NAME  
 ------------------------------------------------------------------------------------------------
     1      (1,1,1)               2.08333325E-02  49.852151       1.0385864            CHD       
     2      (2,1,1)               2.08333325E-02  49.852151       1.0385864            CHD       
     3      (3,1,1)               2.08333325E-02  49.852151       1.0385864            CHD       
     4      (4,1,1)               0.0000000       0.0000000       0.0000000            CHD       
     5      (5,1,1)               0.0000000       0.0000000       0.0000000            CHD       
     6      (6,1,1)               0.0000000       0.0000000       0.0000000            CHD       
     7      (7,1,1)               0.0000000       0.0000000       0.0000000            CHD       
     8      (8,1,1)               0.0000000       0.0000000       0.0000000            CHD       
     9      (9,1,1)               0.0000000       0.0000000       0.0000000            CHD       
     10     (10,1,1)              0.0000000       0.0000000       0.0000000            CHD       
     11     (1,1,25)             -2.08333362E-02  7.4578817      -0.15537256           CHD       
     12     (2,1,25)             -2.08333362E-02  7.4578817      -0.15537256           CHD       
     13     (3,1,25)             -2.08333362E-02  7.4578817      -0.15537256           CHD       
     14     (4,1,25)             -2.08333362E-02  7.4578817      -0.15537256           CHD       
     15     (5,1,25)             -2.08333362E-02  7.4578817      -0.15537256           CHD       
     16     (6,1,25)             -2.08333362E-02  7.4578817      -0.15537256           CHD       
     17     (7,1,25)             -2.08333362E-02  7.4578817      -0.15537256           CHD       
     18     (8,1,25)             -2.08333362E-02  7.4578817      -0.15537256           CHD       
     19     (9,1,25)             -2.08333362E-02  7.4578817      -0.15537256           CHD       
     20     (10,1,25)            -2.08333362E-02  7.4578817      -0.15537256           CHD       
 ------------------------------------------------------------------------------------------------




 CNC PACKAGE (CNC) FLOW RATES   PERIOD      1   STEP        3
 -----------------------------------------------
   NUMBER   CELLID                    RATE      
 -----------------------------------------------
     1      (4,1,1)              -1.0541034     
     2      (5,1,1)               0.14937817    
     3      (6,1,1)               0.15245597    
     4      (7,1,1)               0.15396415    
     5      (8,1,1)               0.15468939    
     6      (9,1,1)               0.15502409    
     7      (10,1,1)              0.15515448    
 -----------------------------------------------



1
  CONCENTRATION IN LAYER   1 AT END OF TIME STEP   3 IN STRESS PERIOD    1
  ---------------------------------------------------------------------------

                1               2               3               4               5               6               7               8               9              10
               11              12              13              14              15              16              17              18              19              20
               21              22              23              24              25
 ................................................................................................................................................................
   1  17.54181364     10.50397563     7.980235781     7.532923132     7.467889963     7.459155530     7.458038489     7.457900556     7.457883972     7.457882019    
      7.457881779     7.457881733     7.457881706     7.457881685     7.457881671     7.457881662     7.457881655     7.457881651     7.457881651     7.457881656    
      7.457881666     7.457881680     7.457881697     7.457881717     7.457881728    
1
  CONCENTRATION IN LAYER   2 AT END OF TIME STEP   3 IN STRESS PERIOD    1
  ---------------------------------------------------------------------------

                1               2               3               4               5               6               7               8               9              10
               11              12              13              14              15              16              17              18              19              20
               21              22              23              24              25
 ................................................................................................................................................................
   1  16.24504255     10.09801187     7.927767634     7.527568380     7.467337533     7.459097002     7.458032294     7.457899914     7.457883910     7.457882012    
      7.457881775     7.457881729     7.457881699     7.457881675     7.457881657     7.457881646     7.457881638     7.457881634     7.457881635     7.457881641    
      7.457881653     7.457881671     7.457881690     7.457881715     7.457881728    
1
  CONCENTRATION IN LAYER   3 AT END OF TIME STEP   3 IN STRESS PERIOD    1
  ---------------------------------------------------------------------------

                1               2               3               4               5               6               7               8               9              10
               11              12              13              14              15              16              17              18              19              20
               21              22              23              24              25
 ................................................................................................................................................................
   1  13.20492408     9.329591133     7.838818810     7.518373346     7.466345616     7.458989176     7.458020748     7.457898709     7.457883791     7.457881999    
      7.457881770     7.457881723     7.457881689     7.457881658     7.457881635     7.457881620     7.457881611     7.457881607     7.457881609     7.457881617    
      7.457881633     7.457881655     7.457881680     7.457881711     7.457881727    
1
  CONCENTRATION IN LAYER   4 AT END OF TIME STEP   3 IN STRESS PERIOD    1
  ---------------------------------------------------------------------------

                1               2               3               4               5               6               7               8               9              10
               11              12              13              14              15              16              17              18              19              20
               21              22              23              24              25
 ................................................................................................................................................................
   1  7.457881730     8.392962573     7.744231876     7.507539927     7.465081267     7.458847453     7.458005344     7.457897081     7.457883629     7.457881982    
      7.457881766     7.457881719     7.457881681     7.457881644     7.457881616     7.457881597     7.457881586     7.457881583     7.457881585     7.457881595    
      7.457881614     7.457881641     7.457881670     7.457881707     7.457881726    
1
  CONCENTRATION IN LAYER   5 AT END OF TIME STEP   3 IN STRESS PERIOD    1
  ---------------------------------------------------------------------------

                1               2               3               4               5               6               7               8               9              10
               11              12              13              14              15              16              17              18              19              20
               21              22              23              24              25
 ................................................................................................................................................................
   1  7.457881730     7.918248249     7.644809196     7.495606705     7.463698360     7.458689973     7.457987947     7.457895217     7.457883438     7.457881964    
      7.457881763     7.457881717     7.457881676     7.457881637     7.457881604     7.457881583     7.457881571     7.457881567     7.457881570     7.457881581    
      7.457881601     7.457881630     7.457881662     7.457881704     7.457881726    
1
  CONCENTRATION IN LAYER   6 AT END OF TIME STEP   3 IN STRESS PERIOD    1
  ---------------------------------------------------------------------------

                1               2               3               4               5               6               7               8               9              10
               11              12              13              14              15              16              17              18              19              20
               21              22              23              24              25
 ................................................................................................................................................................
   1  7.457881730     7.681873614     7.570498323     7.484639564     7.462361010     7.458534330     7.457970457     7.457893313     7.457883239     7.457881945    
      7.457881762     7.457881718     7.457881676     7.457881635     7.457881601     7.457881579     7.457881566     7.457881562     7.457881564     7.457881576    
      7.457881596     7.457881626     7.457881658     7.457881702     7.457881725    
1
  CONCENTRATION IN LAYER   7 AT END OF TIME STEP   3 IN STRESS PERIOD    1
  ---------------------------------------------------------------------------

                1               2               3               4               5               6               7               8               9              10
               11              12              13              14              15              16              17              18              19              20
               21              22              23              24              25
 ................................................................................................................................................................
   1  7.457881730     7.566045393     7.522450551     7.475911347     7.461207149     7.458395665     7.457954574     7.457891557     7.457883051     7.457881925    
      7.457881762     7.457881719     7.457881679     7.457881638     7.457881605     7.457881584     7.457881571     7.457881566     7.457881568     7.457881579    
      7.457881599     7.457881627     7.457881659     7.457881701     7.457881725    
1
  CONCENTRATION IN LAYER   8 AT END OF TIME STEP   3 IN STRESS PERIOD    1
  ---------------------------------------------------------------------------

                1               2               3               4               5               6               7               8               9              10
               11              12              13              14              15              16              17              18              19              20
               21              22              23              24              25
 ................................................................................................................................................................
   1  7.457881730     7.510346705     7.494123050     7.469744067     7.460318915     7.458284973     7.457941640     7.457890104     7.457882890     7.457881908    
      7.457881763     7.457881722     7.457881683     7.457881645     7.457881615     7.457881595     7.457881583     7.457881578     7.457881579     7.457881589    
      7.457881607     7.457881634     7.457881663     7.457881702     7.457881725    
1
  CONCENTRATION IN LAYER   9 AT END OF TIME STEP   3 IN STRESS PERIOD    1
  ---------------------------------------------------------------------------

                1               2               3               4               5               6               7               8               9              10
               11              12              13              14              15              16              17              18              19              20
               21              22              23              24              25
 ................................................................................................................................................................
   1  7.457881730     7.484642139     7.478945392     7.465930987     7.459727683     7.458208821     7.457932577     7.457889069     7.457882772     7.457881897    
      7.457881765     7.457881726     7.457881689     7.457881654     7.457881628     7.457881612     7.457881601     7.457881595     7.457881596     7.457881604    
      7.457881620     7.457881644     7.457881669     7.457881704     7.457881725    
1
  CONCENTRATION IN LAYER  10 AT END OF TIME STEP   3 IN STRESS PERIOD    1
  ---------------------------------------------------------------------------

                1               2               3               4               5               6               7               8               9              10
               11              12              13              14              15              16              17              18              19              20
               21              22              23              24              25
 ................................................................................................................................................................
   1  7.457881730     7.474628098     7.472437559     7.464136264     7.459435280     7.458170267     7.457927924     7.457888531     7.457882712     7.457881893    
      7.457881767     7.457881730     7.457881697     7.457881668     7.457881647     7.457881633     7.457881622     7.457881616     7.457881616     7.457881623    
      7.457881636     7.457881656     7.457881678     7.457881707     7.457881725    

 CONCENTRATION WILL BE SAVED ON UNIT 6711 AT END OF TIME STEP    3, STRESS PERIOD    1


  MASS BUDGET FOR ENTIRE MODEL AT END OF TIME STEP    3, STRESS PERIOD   1
  ---------------------------------------------------------------------------------------------------

     CUMULATIVE MASS      M       RATES FOR THIS TIME STEP      M/T          PACKAGE NAME    
     ------------------                 ------------------------                     ----------------

           IN:                                      IN:
           ---                                      ---
     STORAGE-AQUEOUS =       1.9705E-05       STORAGE-AQUEOUS =       3.2552E-07     MST                              
                 CHD =          93.4728                   CHD =           3.1158     SSM_CHD                          
                 CNC =          32.2207                   CNC =           1.0639     CNC                              

            TOTAL IN =         125.6935              TOTAL IN =           4.1796

          OUT:                                     OUT:
          ----                                     ----
     STORAGE-AQUEOUS =          51.1308       STORAGE-AQUEOUS =           1.4286     MST                              
                 CHD =          46.6118                   CHD =           1.5537     SSM_CHD                          
                 CNC =          27.9509                   CNC =           1.1973     CNC                              

           TOTAL OUT =         125.6935             TOTAL OUT =           4.1796

            IN - OUT =       6.2864E-09              IN - OUT =       3.2832E-10

 PERCENT DISCREPANCY =           0.00     PERCENT DISCREPANCY =           0.00




         TIME SUMMARY AT END OF TIME STEP    3 IN STRESS PERIOD    1
                    SECONDS     MINUTES      HOURS       DAYS        YEARS
                    -----------------------------------------------------------
   TIME STEP LENGTH 8.64000E+05  14400.      240.00      10.000     2.73785E-02
 STRESS PERIOD TIME 2.59200E+06  43200.      720.00      30.000     8.21355E-02
         TOTAL TIME 2.59200E+06  43200.      720.00      30.000     8.21355E-02


end timestep


start timestep kper="1" kstp="4" mode="normal"

 UBDSV06 SAVING  SOURCE-SINK MIX IN MODEL S                PACKAGE S               CONNECTED TO MODEL S                PACKAGE SSM              ON UNIT   6710 AT TIME STEP      4, STRESS PERIOD      1
 UBDSV06 SAVING              CNC IN MODEL S                PACKAGE S               CONNECTED TO MODEL S                PACKAGE CNC              ON UNIT   6710 AT TIME STEP      4, STRESS PERIOD      1

 SSM PACKAGE (SSM) FLOW RATES   PERIOD      1   STEP        4
 ------------------------------------------------------------------------------------------------
   NUMBER   CELLID                   BOUND Q        SSM CONC          RATE         PACKAGE NAME  
 ------------------------------------------------------------------------------------------------
     1      (1,1,1)               2.08333321E-02  49.852151       1.0385864            CHD       
     2      (2,1,1)               2.08333321E-02  49.852151       1.0385864            CHD       
     3      (3,1,1)               2.08333321E-02  49.852151       1.0385864            CHD       
     4      (4,1,1)               0.0000000       0.0000000       0.0000000            CHD       
     5      (5,1,1)               0.0000000       0.0000000       0.0000000            CHD       
     6      (6,1,1)               0.0000000       0.0000000       0.0000000            CHD       
     7      (7,1,1)               0.0000000       0.0000000       0.0000000            CHD       
     8      (8,1,1)               0.0000000       0.0000000       0.0000000            CHD       
     9      (9,1,1)               0.0000000       0.0000000       0.0000000            CHD       
     10     (10,1,1)              0.0000000       0.0000000       0.0000000            CHD       
     11     (1,1,25)             -2.08333356E-02  7.4578817      -0.15537255           CHD       
     12     (2,1,25)             -2.08333356E-02  7.4578817      -0.15537255           CHD       
     13     (3,1,25)             -2.08333356E-02  7.4578817      -0.15537255           CHD       
     14     (4,1,25)             -2.08333356E-02  7.4578817      -0.15537255           CHD       
     15     (5,1,25)             -2.08333356E-02  7.4578817      -0.15537255           CHD       
     16     (6,1,25)             -2.08333356E-02  7.4578817      -0.15537255           CHD       
     17     (7,1,25)             -2.08333356E-02  7.4578817      -0.15537255           CHD       
     18     (8,1,25)             -2.08333356E-02  7.4578817      -0.15537255           CHD       
     19     (9,1,25)             -2.08333356E-02  7.4578817      -0.15537255           CHD       
     20     (10,1,25)            -2.08333356E-02  7.4578817      -0.15537255           CHD       
 ------------------------------------------------------------------------------------------------




 CNC PACKAGE (CNC) FLOW RATES   PERIOD      1   STEP        4
 -----------------------------------------------
   NUMBER   CELLID                    RATE      
 -----------------------------------------------
     1      (4,1,1)              -1.1936261     
     2      (5,1,1)               0.14622678    
     3      (6,1,1)               0.15064343    
     4      (7,1,1)               0.15294650    
     5      (8,1,1)               0.15412103    
     6      (9,1,1)               0.15469173    
     7      (10,1,1)              0.15492249    
 -----------------------------------------------



1
  CONCENTRATION IN LAYER   1 AT END OF TIME STEP   4 IN STRESS PERIOD    1
  ---------------------------------------------------------------------------

                1               2               3               4               5               6               7               8               9              10
               11              12              13              14              15              16              17              18              19              20
               21              22              23              24              25
 ................................................................................................................................................................
   1  18.64220801     11.49045840     8.318817590     7.607947299     7.481445560     7.461330731     7.458361314     7.457945900     7.457890089     7.457882817    
      7.457881877     7.457881740     7.457881700     7.457881675     7.457881656     7.457881643     7.457881634     7.457881629     7.457881630     7.457881636    
      7.457881648     7.457881665     7.457881685     7.457881710     7.457881725    
1
  CONCENTRATION IN LAYER   2 AT END OF TIME STEP   4 IN STRESS PERIOD    1
  ---------------------------------------------------------------------------

                1               2               3               4               5               6               7               8               9              10
               11              12              13              14              15              16              17              18              19              20
               21              22              23              24              25
 ................................................................................................................................................................
   1  17.31484194     10.96972088     8.237033301     7.598085562     7.480259232     7.461186168     7.458343976     7.457943878     7.457889862     7.457882790    
      7.457881869     7.457881733     7.457881692     7.457881665     7.457881644     7.457881629     7.457881619     7.457881614     7.457881615     7.457881623    
      7.457881637     7.457881657     7.457881680     7.457881708     7.457881725    
1
  CONCENTRATION IN LAYER   3 AT END OF TIME STEP   4 IN STRESS PERIOD    1
  ---------------------------------------------------------------------------

                1               2               3               4               5               6               7               8               9              10
               11              12              13              14              15              16              17              18              19              20
               21              22              23              24              25
 ................................................................................................................................................................
   1  13.84922031     9.983475823     8.098168619     7.580984565     7.478108196     7.460918000     7.458311515     7.457940074     7.457889433     7.457882741    
      7.457881857     7.457881723     7.457881680     7.457881650     7.457881626     7.457881607     7.457881595     7.457881590     7.457881593     7.457881603    
      7.457881620     7.457881643     7.457881670     7.457881704     7.457881724    
1
  CONCENTRATION IN LAYER   4 AT END OF TIME STEP   4 IN STRESS PERIOD    1
  ---------------------------------------------------------------------------

                1               2               3               4               5               6               7               8               9              10
               11              12              13              14              15              16              17              18              19              20
               21              22              23              24              25
 ................................................................................................................................................................
   1  7.457881730     8.799562857     7.945690303     7.560349803     7.475326522     7.460562074     7.458267924     7.457934926     7.457888848     7.457882675    
      7.457881845     7.457881715     7.457881670     7.457881637     7.457881609     7.457881587     7.457881572     7.457881567     7.457881571     7.457881583    
      7.457881603     7.457881630     7.457881661     7.457881700     7.457881723    
1
  CONCENTRATION IN LAYER   5 AT END OF TIME STEP   4 IN STRESS PERIOD    1
  ---------------------------------------------------------------------------

                1               2               3               4               5               6               7               8               9              10
               11              12              13              14              15              16              17              18              19              20
               21              22              23              24              25
 ................................................................................................................................................................
   1  7.457881730     8.160275520     7.787369889     7.537485582     7.472243636     7.460161974     7.458218275     7.457929005     7.457888168     7.457882599    
      7.457881834     7.457881710     7.457881665     7.457881630     7.457881598     7.457881573     7.457881557     7.457881552     7.457881556     7.457881569    
      7.457881591     7.457881620     7.457881654     7.457881697     7.457881722    
1
  CONCENTRATION IN LAYER   6 AT END OF TIME STEP   4 IN STRESS PERIOD    1
  ---------------------------------------------------------------------------

                1               2               3               4               5               6               7               8               9              10
               11              12              13              14              15              16              17              18              19              20
               21              22              23              24              25
 ................................................................................................................................................................
   1  7.457881730     7.821076096     7.664908641     7.516024135     7.469210546     7.459761243     7.458167883     7.457922931     7.457887463     7.457882520    
      7.457881825     7.457881709     7.457881664     7.457881628     7.457881595     7.457881569     7.457881552     7.457881547     7.457881551     7.457881564    
      7.457881586     7.457881616     7.457881650     7.457881694     7.457881722    
1
  CONCENTRATION IN LAYER   7 AT END OF TIME STEP   4 IN STRESS PERIOD    1
  ---------------------------------------------------------------------------

                1               2               3               4               5               6               7               8               9              10
               11              12              13              14              15              16              17              18              19              20
               21              22              23              24              25
 ................................................................................................................................................................
   1  7.457881730     7.644200296     7.582197246     7.498445668     7.466539006     7.459398970     7.458121660     7.457917298     7.457886802     7.457882445    
      7.457881819     7.457881710     7.457881666     7.457881630     7.457881598     7.457881572     7.457881555     7.457881550     7.457881553     7.457881566    
      7.457881587     7.457881617     7.457881650     7.457881694     7.457881721    
1
  CONCENTRATION IN LAYER   8 AT END OF TIME STEP   4 IN STRESS PERIOD    1
  ---------------------------------------------------------------------------

                1               2               3               4               5               6               7               8               9              10
               11              12              13              14              15              16              17              18              19              20
               21              22              23              24              25
 ................................................................................................................................................................
   1  7.457881730     7.553996553     7.531231869     7.485647076     7.464438906     7.459105599     7.458083658     7.457912618     7.457886246     7.457882383    
      7.457881815     7.457881714     7.457881671     7.457881637     7.457881606     7.457881582     7.457881566     7.457881560     7.457881563     7.457881574    
      7.457881594     7.457881622     7.457881653     7.457881694     7.457881721    
1
  CONCENTRATION IN LAYER   9 AT END OF TIME STEP   4 IN STRESS PERIOD    1
  ---------------------------------------------------------------------------

                1               2               3               4               5               6               7               8               9              10
               11              12              13              14              15              16              17              18              19              20
               21              22              23              24              25
 ................................................................................................................................................................
   1  7.457881730     7.510166959     7.502835147     7.477524133     7.463015695     7.458901310     7.458056827     7.457909281     7.457885846     7.457882338    
      7.457881815     7.457881719     7.457881678     7.457881646     7.457881618     7.457881596     7.457881581     7.457881575     7.457881577     7.457881587    
      7.457881605     7.457881630     7.457881658     7.457881696     7.457881721    
1
  CONCENTRATION IN LAYER  10 AT END OF TIME STEP   4 IN STRESS PERIOD    1
  ---------------------------------------------------------------------------

                1               2               3               4               5               6               7               8               9              10
               11              12              13              14              15              16              17              18              19              20
               21              22              23              24              25
 ................................................................................................................................................................
   1  7.457881730     7.492444633     7.490314355     7.473631800     7.462303239     7.458797046     7.458042992     7.457907548     7.457885636     7.457882316    
      7.457881819     7.457881728     7.457881688     7.457881656     7.457881631     7.457881612     7.457881598     7.457881592     7.457881593     7.457881601    
      7.457881616     7.457881639     7.457881665     7.457881698     7.457881722    

 CONCENTRATION WILL BE SAVED ON UNIT 6711 AT END OF TIME STEP    4, STRESS PERIOD    1


  MASS BUDGET FOR ENTIRE MODEL AT END OF TIME STEP    4, STRESS PERIOD   1
  ---------------------------------------------------------------------------------------------------

     CUMULATIVE MASS      M       RATES FOR THIS TIME STEP      M/T          PACKAGE NAME    
     ------------------                 ------------------------                     ----------------

           IN:                                      IN:
           ---                                      ---
     STORAGE-AQUEOUS =       2.1991E-05       STORAGE-AQUEOUS =       2.2858E-07     MST                              
                 CHD =         124.6304                   CHD =           3.1158     SSM_CHD                          
                 CNC =          42.7352                   CNC =           1.0515     CNC                              

            TOTAL IN =         167.3656              TOTAL IN =           4.1672

          OUT:                                     OUT:
          ----                                     ----
     STORAGE-AQUEOUS =          63.9504       STORAGE-AQUEOUS =           1.2820     MST                              
                 CHD =          62.1490                   CHD =           1.5537     SSM_CHD                          
                 CNC =          41.2662                   CNC =           1.3315     CNC                              

           TOTAL OUT =         167.3656             TOTAL OUT =           4.1672

            IN - OUT =       7.0748E-09              IN - OUT =       7.8832E-11

 PERCENT DISCREPANCY =           0.00     PERCENT DISCREPANCY =           0.00




         TIME SUMMARY AT END OF TIME STEP    4 IN STRESS PERIOD    1
                    SECONDS     MINUTES      HOURS       DAYS        YEARS
                    -----------------------------------------------------------
   TIME STEP LENGTH 8.64000E+05  14400.      240.00      10.000     2.73785E-02
 STRESS PERIOD TIME 3.45600E+06  57600.      960.00      40.000     0.10951    
         TOTAL TIME 3.45600E+06  57600.      960.00      40.000     0.10951    


end timestep


start timestep kper="1" kstp="5" mode="normal"

 UBDSV06 SAVING  SOURCE-SINK MIX IN MODEL S                PACKAGE S               CONNECTED TO MODEL S                PACKAGE SSM              ON UNIT   6710 AT TIME STEP      5, STRESS PERIOD      1
 UBDSV06 SAVING              CNC IN MODEL S                PACKAGE S               CONNECTED TO MODEL S                PACKAGE CNC              ON UNIT   6710 AT TIME STEP      5, STRESS PERIOD      1

 SSM PACKAGE (SSM) FLOW RATES   PERIOD      1   STEP        5
 ------------------------------------------------------------------------------------------------
   NUMBER   CELLID                   BOUND Q        SSM CONC          RATE         PACKAGE NAME  
 ------------------------------------------------------------------------------------------------
     1      (1,1,1)               2.08333321E-02  49.852151       1.0385864            CHD       
     2      (2,1,1)               2.08333321E-02  49.852151       1.0385864            CHD       
     3      (3,1,1)               2.08333321E-02  49.852151       1.0385864            CHD       
     4      (4,1,1)               0.0000000       0.0000000       0.0000000            CHD       
     5      (5,1,1)               0.0000000       0.0000000       0.0000000            CHD       
     6      (6,1,1)               0.0000000       0.0000000       0.0000000            CHD       
     7      (7,1,1)               0.0000000       0.0000000       0.0000000            CHD       
     8      (8,1,1)               0.0000000       0.0000000       0.0000000            CHD       
     9      (9,1,1)               0.0000000       0.0000000       0.0000000            CHD       
     10     (10,1,1)              0.0000000       0.0000000       0.0000000            CHD       
     11     (1,1,25)             -2.08333353E-02  7.4578817      -0.15537255           CHD       
     12     (2,1,25)             -2.08333353E-02  7.4578817      -0.15537255           CHD       
[...]
               21              22              23              24              25
 ................................................................................................................................................................
   1  7.457881730     8.199158785     9.274053840     10.10366878     10.59347724     10.85273931     10.98456438     11.05072832     11.08378401     11.10017780    
      11.10803214     11.11105959     11.11084825     11.10872748     11.10387414     11.09548197     11.08229068     11.06255470     11.03408638     10.99433666    
      10.94055137     10.87007711     10.78105308     10.67436508     10.56034350    

 CONCENTRATION WILL BE SAVED ON UNIT 6711 AT END OF TIME STEP  199, STRESS PERIOD    1


  MASS BUDGET FOR ENTIRE MODEL AT END OF TIME STEP  199, STRESS PERIOD   1
  ---------------------------------------------------------------------------------------------------

     CUMULATIVE MASS      M       RATES FOR THIS TIME STEP      M/T          PACKAGE NAME    
     ------------------                 ------------------------                     ----------------

           IN:                                      IN:
           ---                                      ---
     STORAGE-AQUEOUS =          59.0178       STORAGE-AQUEOUS =       2.3238E-09     MST                              
                 CHD =        6200.3611                   CHD =           3.1158     SSM_CHD                          
                 CNC =        1836.8164                   CNC =           0.9145     CNC                              

            TOTAL IN =        8096.1953              TOTAL IN =           4.0303

          OUT:                                     OUT:
          ----                                     ----
     STORAGE-AQUEOUS =        1311.5833       STORAGE-AQUEOUS =           0.1160     MST                              
                 CHD =        3412.4714                   CHD =           2.2001     SSM_CHD                          
                 CNC =        3372.1405                   CNC =           1.7143     CNC                              

           TOTAL OUT =        8096.1953             TOTAL OUT =           4.0303

            IN - OUT =      -1.9383E-06              IN - OUT =      -6.9124E-09

 PERCENT DISCREPANCY =          -0.00     PERCENT DISCREPANCY =          -0.00




         TIME SUMMARY AT END OF TIME STEP  199 IN STRESS PERIOD    1
                    SECONDS     MINUTES      HOURS       DAYS        YEARS
                    -----------------------------------------------------------
   TIME STEP LENGTH 8.64000E+05  14400.      240.00      10.000     2.73785E-02
 STRESS PERIOD TIME 1.71936E+08 2.86560E+06  47760.      1990.0      5.4483    
         TOTAL TIME 1.71936E+08 2.86560E+06  47760.      1990.0      5.4483    


end timestep


start timestep kper="1" kstp="200" mode="normal"

 UBDSV06 SAVING  SOURCE-SINK MIX IN MODEL S                PACKAGE S               CONNECTED TO MODEL S                PACKAGE SSM              ON UNIT   6710 AT TIME STEP    200, STRESS PERIOD      1
 UBDSV06 SAVING              CNC IN MODEL S                PACKAGE S               CONNECTED TO MODEL S                PACKAGE CNC              ON UNIT   6710 AT TIME STEP    200, STRESS PERIOD      1

 SSM PACKAGE (SSM) FLOW RATES   PERIOD      1   STEP      200
 ------------------------------------------------------------------------------------------------
   NUMBER   CELLID                   BOUND Q        SSM CONC          RATE         PACKAGE NAME  
 ------------------------------------------------------------------------------------------------
     1      (1,1,1)               2.08333330E-02  49.852151       1.0385865            CHD       
     2      (2,1,1)               2.08333330E-02  49.852151       1.0385865            CHD       
     3      (3,1,1)               2.08333330E-02  49.852151       1.0385865            CHD       
     4      (4,1,1)               0.0000000       0.0000000       0.0000000            CHD       
     5      (5,1,1)               0.0000000       0.0000000       0.0000000            CHD       
     6      (6,1,1)               0.0000000       0.0000000       0.0000000            CHD       
     7      (7,1,1)               0.0000000       0.0000000       0.0000000            CHD       
     8      (8,1,1)               0.0000000       0.0000000       0.0000000            CHD       
     9      (9,1,1)               0.0000000       0.0000000       0.0000000            CHD       
     10     (10,1,1)              0.0000000       0.0000000       0.0000000            CHD       
     11     (1,1,25)             -2.08333337E-02  10.579187      -0.22039974           CHD       
     12     (2,1,25)             -2.08333337E-02  10.579187      -0.22039974           CHD       
     13     (3,1,25)             -2.08333337E-02  10.579187      -0.22039974           CHD       
     14     (4,1,25)             -2.08333337E-02  10.579187      -0.22039973           CHD       
     15     (5,1,25)             -2.08333337E-02  10.579187      -0.22039973           CHD       
     16     (6,1,25)             -2.08333337E-02  10.579187      -0.22039973           CHD       
     17     (7,1,25)             -2.08333337E-02  10.579187      -0.22039973           CHD       
     18     (8,1,25)             -2.08333337E-02  10.579187      -0.22039973           CHD       
     19     (9,1,25)             -2.08333337E-02  10.579187      -0.22039973           CHD       
     20     (10,1,25)            -2.08333337E-02  10.579187      -0.22039973           CHD       
 ------------------------------------------------------------------------------------------------




 CNC PACKAGE (CNC) FLOW RATES   PERIOD      1   STEP      200
 -----------------------------------------------
   NUMBER   CELLID                    RATE      
 -----------------------------------------------
     1      (4,1,1)              -1.6151602     
     2      (5,1,1)               0.11736323    
     3      (6,1,1)               0.12928203    
     4      (7,1,1)               0.13692894    
     5      (8,1,1)               0.14169424    
     6      (9,1,1)               0.14445553    
     7      (10,1,1)              0.14572049    
 -----------------------------------------------



1
  CONCENTRATION IN LAYER   1 AT END OF TIME STEP 200 IN STRESS PERIOD    1
  ---------------------------------------------------------------------------

                1               2               3               4               5               6               7               8               9              10
               11              12              13              14              15              16              17              18              19              20
               21              22              23              24              25
 ................................................................................................................................................................
   1  22.91715445     16.72535910     13.48979144     12.21210388     11.65079261     11.38222879     11.24946675     11.18321443     11.15004242     11.13331671    
      11.12459919     11.11946088     11.11550559     11.11126388     11.10552813     11.09701052     11.08418639     11.06521033     11.03788165     10.99967456    
      10.94786278     10.87980336     10.79360802     10.69006097     10.57918722    
1
  CONCENTRATION IN LAYER   2 AT END OF TIME STEP 200 IN STRESS PERIOD    1
  ---------------------------------------------------------------------------

                1               2               3               4               5               6               7               8               9              10
               11              12              13              14              15              16              17              18              19              20
               21              22              23              24              25
 ................................................................................................................................................................
   1  20.61064203     15.70890657     13.16477809     12.09216104     11.59719810     11.35616576     11.23649884     11.17673250     11.14680049     11.13169555    
      11.12378790     11.11905061     11.11529703     11.11116042     11.10547910     11.09698825     11.08417654     11.06520600     11.03787974     10.99967370    
      10.94786239     10.87980319     10.79360794     10.69006093     10.57918719    
1
  CONCENTRATION IN LAYER   3 AT END OF TIME STEP 200 IN STRESS PERIOD    1
  ---------------------------------------------------------------------------

                1               2               3               4               5               6               7               8               9              10
               11              12              13              14              15              16              17              18              19              20
               21              22              23              24              25
 ................................................................................................................................................................
   1  15.68633720     13.88744587     12.58541548     11.87043641     11.49589489     11.30662735     11.21183162     11.16440239     11.14063382     11.12861197    
      11.12224493     11.11826999     11.11490001     11.11096364     11.10538597     11.09694600     11.08415784     11.06519778     11.03787610     10.99967208    
      10.94786166     10.87980285     10.79360778     10.69006086     10.57918716    
1
  CONCENTRATION IN LAYER   4 AT END OF TIME STEP 200 IN STRESS PERIOD    1
  ---------------------------------------------------------------------------

                1               2               3               4               5               6               7               8               9              10
               11              12              13              14              15              16              17              18              19              20
               21              22              23              24              25
 ................................................................................................................................................................
   1  7.457881730     11.77950949     11.86853817     11.57751161     11.35756345     11.23851489     11.17787978     11.14743003     11.13214575     11.12436791    
      11.12012188     11.11719497     11.11435265     11.11069275     11.10525813     11.09688808     11.08413219     11.06518649     11.03787111     10.99966984    
      10.94786064     10.87980238     10.79360757     10.69006076     10.57918711    
1
  CONCENTRATION IN LAYER   5 AT END OF TIME STEP 200 IN STRESS PERIOD    1
  ---------------------------------------------------------------------------

                1               2               3               4               5               6               7               8               9              10
               11              12              13              14              15              16              17              18              19              20
               21              22              23              24              25
 ................................................................................................................................................................
   1  7.457881730     10.37699649     11.17559402     11.23851457     11.19573408     11.15855365     11.13796867     11.12747583     11.12216687     11.11937903    
      11.11762793     11.11593050     11.11370690     11.11037387     11.10510838     11.09682038     11.08410217     11.06517323     11.03786523     10.99966721    
      10.94785945     10.87980183     10.79360732     10.69006064     10.57918705    
1
  CONCENTRATION IN LAYER   6 AT END OF TIME STEP 200 IN STRESS PERIOD    1
  ---------------------------------------------------------------------------

                1               2               3               4               5               6               7               8               9              10
               11              12              13              14              15              16              17              18              19              20
               21              22              23              24              25
 ................................................................................................................................................................
   1  7.457881730     9.461632460     10.55161678     10.90658339     11.02728749     11.07450157     11.09599874     11.10649242     11.11167384     11.11413456    
      11.11501180     11.11459987     11.11302158     11.11003704     11.10495159     11.09674972     11.08407076     11.06515933     11.03785906     10.99966445    
      10.94785820     10.87980126     10.79360705     10.69006052     10.57918699    
1
  CONCENTRATION IN LAYER   7 AT END OF TIME STEP 200 IN STRESS PERIOD    1
  ---------------------------------------------------------------------------

                1               2               3               4               5               6               7               8               9              10
               11              12              13              14              15              16              17              18              19              20
               21              22              23              24              25
 ................................................................................................................................................................
   1  7.457881730     8.874350026     10.03875702     10.60702122     10.86989087     10.99486165     11.05609474     11.08653367     11.10169355     11.10914540    
      11.11253424     11.11335105     11.11234606     11.10971288     11.10480331     11.09668312     11.08404107     11.06514614     11.03785319     10.99966182    
      10.94785701     10.87980071     10.79360680     10.69006040     10.57918694    
1
  CONCENTRATION IN LAYER   8 AT END OF TIME STEP 200 IN STRESS PERIOD    1
  ---------------------------------------------------------------------------

                1               2               3               4               5               6               7               8               9              10
               11              12              13              14              15              16              17              18              19              20
               21              22              23              24              25
 ................................................................................................................................................................
   1  7.457881730     8.508374696     9.653879506     10.36315655     10.73789722     10.92734197     11.02216273     11.06955410     11.09320316     11.10490106    
      11.11042191     11.11231995     11.11174796     11.10943296     11.10467793     11.09662700     11.08401595     11.06513493     11.03784819     10.99965958    
      10.94785599     10.87980025     10.79360658     10.69006031     10.57918689    
1
  CONCENTRATION IN LAYER   9 AT END OF TIME STEP 200 IN STRESS PERIOD    1
  ---------------------------------------------------------------------------

                1               2               3               4               5               6               7               8               9              10
               11              12              13              14              15              16              17              18              19              20
               21              22              23              24              25
 ................................................................................................................................................................
   1  7.457881730     8.296307590     9.399824155     10.19184292     10.64302246     10.87841690     10.99751828     11.05721691     11.08703415     11.10181722    
      11.10888591     11.11158260     11.11130404     11.10922764     11.10458733     11.09658656     11.08399780     11.06512681     11.03784457     10.99965796    
      10.94785526     10.87979991     10.79360643     10.69006024     10.57918685    
1
  CONCENTRATION IN LAYER  10 AT END OF TIME STEP 200 IN STRESS PERIOD    1
  ---------------------------------------------------------------------------

                1               2               3               4               5               6               7               8               9              10
               11              12              13              14              15              16              17              18              19              20
               21              22              23              24              25
 ................................................................................................................................................................
   1  7.457881730     8.199158787     9.274053845     10.10366880     10.59347730     10.85273953     10.98456512     11.05073062     11.08379077     11.10019591    
      11.10807810     11.11119801     11.11106794     11.10911931     11.10453990     11.09656541     11.08398828     11.06512254     11.03784266     10.99965710    
      10.94785487     10.87979973     10.79360634     10.69006021     10.57918682    

 CONCENTRATION WILL BE SAVED ON UNIT 6711 AT END OF TIME STEP  200, STRESS PERIOD    1


  MASS BUDGET FOR ENTIRE MODEL AT END OF TIME STEP  200, STRESS PERIOD   1
  ---------------------------------------------------------------------------------------------------

     CUMULATIVE MASS      M       RATES FOR THIS TIME STEP      M/T          PACKAGE NAME    
     ------------------                 ------------------------                     ----------------

           IN:                                      IN:
           ---                                      ---
     STORAGE-AQUEOUS =          59.0178       STORAGE-AQUEOUS =       2.3990E-09     MST                              
                 CHD =        6231.5187                   CHD =           3.1158     SSM_CHD                          
                 CNC =        1845.9619                   CNC =           0.9145     CNC                              

            TOTAL IN =        8136.4983              TOTAL IN =           4.0303

          OUT:                                     OUT:
          ----                                     ----
     STORAGE-AQUEOUS =        1312.7038       STORAGE-AQUEOUS =           0.1120     MST                              
                 CHD =        3434.5114                   CHD =           2.2040     SSM_CHD                          
                 CNC =        3389.2831                   CNC =           1.7143     CNC                              

           TOTAL OUT =        8136.4983             TOTAL OUT =           4.0303

            IN - OUT =      -2.0060E-06              IN - OUT =      -6.7721E-09

 PERCENT DISCREPANCY =          -0.00     PERCENT DISCREPANCY =          -0.00




         TIME SUMMARY AT END OF TIME STEP  200 IN STRESS PERIOD    1
                    SECONDS     MINUTES      HOURS       DAYS        YEARS
                    -----------------------------------------------------------
   TIME STEP LENGTH 8.64000E+05  14400.      240.00      10.000     2.73785E-02
 STRESS PERIOD TIME 1.72800E+08 2.88000E+06  48000.      2000.0      5.4757    
         TOTAL TIME 1.72800E+08 2.88000E+06  48000.      2000.0      5.4757    


end timestep

