                                   MODFLOW 6
                U.S. GEOLOGICAL SURVEY MODULAR HYDROLOGIC MODEL
                       GROUNDWATER TRANSPORT MODEL (GWT)
                VERSION 6.5.0.dev0+prt (preliminary) 10/07/2023
                               ***DEVELOP MODE***

   MODFLOW 6 compiled Oct 07 2023 02:19:02 with Intel(R) Fortran Intel(R) 64
   Compiler Classic for applications running on Intel(R) 64, Version 2021.7.0
                             Build 20220726_000000

This software is preliminary or provisional and is subject to 
revision. It is being provided to meet the need for timely best 
science. The software has not received final approval by the U.S. 
Geological Survey (USGS). No warranty, expressed or implied, is made 
by the USGS or the U.S. Government as to the functionality of the 
software and related material nor shall the fact of release 
constitute any such warranty. The software is provided on the 
condition that neither the USGS nor the U.S. Government shall be held 
liable for any damages resulting from the authorized or unauthorized 
use of the software.


As a work of the United States Government, this USGS product is 
in the public domain within the United States. You can copy, 
modify, distribute, and perform the work, even for commercial 
purposes, all without asking permission. Additionally, USGS 
waives copyright and related rights in the work worldwide 
through CC0 1.0 Universal Public Domain Dedication 
(https://creativecommons.org/publicdomain/zero/1.0/).

The following GNU Lesser General Public License (LGPL) libraries
are used in this USGS product:

    SPARSKIT version 2.0
      ilut, luson, and qsplit 
      (https://www-users.cse.umn.edu/~saad/software/SPARSKIT/)

    RCM - Reverse Cuthill McKee Ordering
      (https://people.math.sc.edu/Burkardt/f_src/rcm/rcm.html)

    BLAS - Basic Linear Algebra Subprograms Level 1
      (https://people.math.sc.edu/Burkardt/f_src/blas1_d/blas1_d.html)

    SPARSEKIT - Sparse Matrix Utility Package
      amux, dperm, dvperm, rperm, and cperm
      (https://people.sc.fsu.edu/~jburkardt/f77_src/sparsekit/sparsekit.html)

The following BSD-3 License libraries are used in this USGS product:

    Modern Fortran DAG Library
      Copyright (c) 2018, Jacob Williams
      All rights reserved.
      (https://github.com/jacobwilliams/daglib)

MODFLOW 6 compiler options: /Isrc\libmf6core.a.p /Isrc /I..\src
/Isrc\libmf6_external.a.p /MTd /nologo /warn:general /warn:truncated_source
/stand:f08 /Zi /traceback /O2 /fpe:0 /heap-arrays:0 /traceback /fpp
/Qdiag-disable:7416 /Qdiag-disable:7025 /Qdiag-disable:5268
/Fdsrc\libmf6core.a.p\Utilities_compilerversion.F90.pdb
/module:src\libmf6core.a.p
/Fosrc/libmf6core.a.p/Utilities_compilerversion.F90.obj /c

System command used to initiate simulation:
c:\Users\portega\anaconda3\envs\mf6rtm\python.exe -m ipykernel_launcher --f=c:\Users\portega\AppData\Roaming\jupyter\runtime\kernel-v2-51408na7dKTn0i5X.json

MODFLOW was compiled using uniform precision.

Real Variables
  KIND: 8
  TINY (smallest non-zero value):    2.225074-308
  HUGE (largest value):    1.797693+308
  PRECISION: 15
  SIZE IN BITS: 64

Integer Variables
  KIND: 4
  HUGE (largest value): 2147483647
  SIZE IN BITS: 32

Long Integer Variables
  KIND: 8
  HUGE (largest value): 9223372036854775807
  SIZE IN BITS: 64

Logical Variables
  KIND: 4
  SIZE IN BITS: 32
 
 NAMEFILE OPTIONS:
 END NAMEFILE OPTIONS:

 DIS -- STRUCTURED GRID DISCRETIZATION PACKAGE, VERSION 2 : 3/27/2014 - INPUT READ FROM MEMPATH: __INPUT__/S/DIS                                   


 DSP-- DISPERSION PACKAGE, VERSION 1, 1/24/2018 INPUT READ FROM MEMPATH: __INPUT__/S/DSP                                   


 Setting Discretization Options
    Model length unit [0=UND, 1=FEET, 2=METERS, 3=CENTIMETERS] set as 2
 End Setting Discretization Options

 Setting Discretization Dimensions
    NLAY = 10
    NROW = 1
    NCOL = 25
 End Setting Discretization Dimensions

 Setting Discretization Griddata
    DELR set from input file
    DELC set from input file
    TOP set from input file
    BOTM set from input file
    IDOMAIN set from input file
 End Setting Discretization Griddata


 FMI -- FLOW MODEL INTERFACE,' VERSION 2, 8/17/2023
  FLOWS PROVIDED BY A GWF MODEL IN THIS SIMULATION

 ADV-- ADVECTION PACKAGE, VERSION 1, 8/25/2017 INPUT READ FROM UNIT 13307


 # File generated by Flopy version 3.5.0.dev0 on 07/04/2024 at 16:27:57.
 PROCESSING ADVECTION OPTIONS
    ADVECTION WEIGHTING SCHEME HAS BEEN SET TO: TVD
 END OF ADVECTION OPTIONS
 Setting DSP Options
    XT3D formulation [0=INACTIVE, 1=ACTIVE, 3=ACTIVE RHS] set to: 0
 End Setting DSP Options

 Setting DSP Griddata
    ALH set from input file
    ATH1 set from input file
    ATV set from input file
 End Setting DSP Griddata


 CNC   -- CNC PACKAGE, VERSION 8, 2/22/2014 INPUT READ FROM UNIT 13341
 # File generated by Flopy version 3.5.0.dev0 on 07/04/2024 at 16:27:57.

 PROCESSING CNC OPTIONS
    CNC FLOWS WILL BE PRINTED TO LISTING FILE.
    FLOWS WILL BE SAVED TO BUDGET FILE SPECIFIED IN OUTPUT CONTROL
 END OF CNC OPTIONS

 PROCESSING CNC DIMENSIONS
    MAXBOUND =       7
 END OF CNC DIMENSIONS

 IC -- INITIAL CONDITIONS PACKAGE, VERSION 8, 3/28/2015 INPUT READ FROM UNIT 13305
 # File generated by Flopy version 3.5.0.dev0 on 07/04/2024 at 16:27:57.
 PROCESSING GRIDDATA

 OPENED S.ic_strt_layer1.txt
 FILE TYPE:OPEN/CLOSE   UNIT ****   STATUS:OLD                 
 FORMAT:FORMATTED              ACCESS:SEQUENTIAL          
 ACTION:READ                


 OPENED S.ic_strt_layer2.txt
 FILE TYPE:OPEN/CLOSE   UNIT ****   STATUS:OLD                 
 FORMAT:FORMATTED              ACCESS:SEQUENTIAL          
 ACTION:READ                


 OPENED S.ic_strt_layer3.txt
 FILE TYPE:OPEN/CLOSE   UNIT ****   STATUS:OLD                 
 FORMAT:FORMATTED              ACCESS:SEQUENTIAL          
 ACTION:READ                


 OPENED S.ic_strt_layer4.txt
 FILE TYPE:OPEN/CLOSE   UNIT ****   STATUS:OLD                 
 FORMAT:FORMATTED              ACCESS:SEQUENTIAL          
 ACTION:READ                


 OPENED S.ic_strt_layer5.txt
 FILE TYPE:OPEN/CLOSE   UNIT ****   STATUS:OLD                 
 FORMAT:FORMATTED              ACCESS:SEQUENTIAL          
 ACTION:READ                


 OPENED S.ic_strt_layer6.txt
 FILE TYPE:OPEN/CLOSE   UNIT ****   STATUS:OLD                 
 FORMAT:FORMATTED              ACCESS:SEQUENTIAL          
 ACTION:READ                


 OPENED S.ic_strt_layer7.txt
 FILE TYPE:OPEN/CLOSE   UNIT ****   STATUS:OLD                 
 FORMAT:FORMATTED              ACCESS:SEQUENTIAL          
 ACTION:READ                


 OPENED S.ic_strt_layer8.txt
 FILE TYPE:OPEN/CLOSE   UNIT ****   STATUS:OLD                 
 FORMAT:FORMATTED              ACCESS:SEQUENTIAL          
 ACTION:READ                


 OPENED S.ic_strt_layer9.txt
 FILE TYPE:OPEN/CLOSE   UNIT ****   STATUS:OLD                 
 FORMAT:FORMATTED              ACCESS:SEQUENTIAL          
 ACTION:READ                


 OPENED S.ic_strt_layer10.txt
 FILE TYPE:OPEN/CLOSE   UNIT ****   STATUS:OLD                 
 FORMAT:FORMATTED              ACCESS:SEQUENTIAL          
 ACTION:READ                

 END PROCESSING GRIDDATA

 MST -- MOBILE STORAGE AND TRANSFER PACKAGE, VERSION 1, 7/29/2020 INPUT READ FROM UNIT 13306


 # File generated by Flopy version 3.5.0.dev0 on 07/04/2024 at 16:27:57.
 PROCESSING MOBILE STORAGE AND TRANSFER OPTIONS
 END OF MOBILE STORAGE AND TRANSFER OPTIONS
 PROCESSING GRIDDATA

 OPENED S.mst_porosity.txt
 FILE TYPE:OPEN/CLOSE   UNIT ****   STATUS:OLD                 
 FORMAT:FORMATTED              ACCESS:SEQUENTIAL          
 ACTION:READ                

 END PROCESSING GRIDDATA

 SSM -- SOURCE-SINK MIXING PACKAGE, VERSION 1, 8/25/2017 INPUT READ FROM UNIT 13339


 # File generated by Flopy version 3.5.0.dev0 on 07/04/2024 at 16:27:57.
 PROCESSING SSM OPTIONS
    SSM FLOW INFORMATION WILL BE PRINTED TO LISTING FILE WHENEVER ICBCFL IS NOT ZERO.
    CELL-BY-CELL FLOW INFORMATION WILL BE SAVED TO BINARY FILE WHENEVER ICBCFL IS NOT ZERO.
 END OF SSM OPTIONS

 OPENED S.ssm_sources.txt
 FILE TYPE:OPEN/CLOSE   UNIT ****   STATUS:OLD                 
 FORMAT:FORMATTED              ACCESS:SEQUENTIAL          
 ACTION:READ                

 PROCESSING SOURCES
 AUX SOURCE DETECTED.
    USING AUX COLUMN 13 IN PACKAGE CHDTAIL
 END PROCESSING SOURCES
 OPTIONAL FILEINPUT BLOCK NOT FOUND.  CONTINUING.
      THE LAST TIME STEP WILL BE PRINTED
      THE LAST TIME STEP WILL BE PRINTED
 # File generated by Flopy version 3.5.0.dev0 on 07/04/2024 at 16:27:57.

 PROCESSING OC OPTIONS

    BUDGET INFORMATION WILL BE WRITTEN TO:
      UNIT NUMBER: 13620
      FILE NAME: S.cbb

 OPENED S.cbb
 FILE TYPE:DATA(BINARY)   UNIT ****   STATUS:REPLACE             
 FORMAT:UNFORMATTED            ACCESS:STREAM              
 ACTION:READWRITE           

    CONCENTRATION INFORMATION WILL BE WRITTEN TO:
      UNIT NUMBER: 13621
      FILE NAME: S.ucn

 OPENED S.ucn
 FILE TYPE:DATA(BINARY)   UNIT ****   STATUS:REPLACE             
 FORMAT:UNFORMATTED            ACCESS:STREAM              
 ACTION:READWRITE           

 END OF OC OPTIONS

start timestep kper="1" kstp="1" mode="normal"


 BEGIN READING OUTPUT CONTROL FOR STRESS PERIOD 1
      ALL TIME STEPS WILL BE SAVED
      ALL TIME STEPS WILL BE PRINTED

 END READING OUTPUT CONTROL FOR STRESS PERIOD 1

 OPENED S.cnc_stress_period_data_1.txt
 FILE TYPE:OPEN/CLOSE   UNIT ****   STATUS:OLD                 
 FORMAT:FORMATTED              ACCESS:SEQUENTIAL          
 ACTION:READ                

1
  CONCENTRATION IN LAYER   1 AT END OF TIME STEP   1 IN STRESS PERIOD    1
  ---------------------------------------------------------------------------

                1               2               3               4               5               6               7               8               9              10
               11              12              13              14              15              16              17              18              19              20
               21              22              23              24              25
 ................................................................................................................................................................
   1  16.19558527     9.816952689     7.767839520     7.490645339     7.461248119     7.458231113     7.457918323     7.457885560     7.457882138     7.457881829    
      7.457881796     7.457881758     7.457881711     7.457881685     7.457881688     7.457881696     7.457881694     7.457881686     7.457881678     7.457881680    
      7.457881687     7.457881697     7.457881708     7.457881722     7.457881729    
1
  CONCENTRATION IN LAYER   2 AT END OF TIME STEP   1 IN STRESS PERIOD    1
  ---------------------------------------------------------------------------

                1               2               3               4               5               6               7               8               9              10
               11              12              13              14              15              16              17              18              19              20
               21              22              23              24              25
 ................................................................................................................................................................
   1  15.51977844     9.545595609     7.731862676     7.487777814     7.461038376     7.458214425     7.457916853     7.457885394     7.457882127     7.457881875    
      7.457881842     7.457881771     7.457881684     7.457881643     7.457881652     7.457881667     7.457881663     7.457881648     7.457881636     7.457881641    
      7.457881655     7.457881675     7.457881695     7.457881719     7.457881728    
1
  CONCENTRATION IN LAYER   3 AT END OF TIME STEP   1 IN STRESS PERIOD    1
  ---------------------------------------------------------------------------

                1               2               3               4               5               6               7               8               9              10
               11              12              13              14              15              16              17              18              19              20
               21              22              23              24              25
 ................................................................................................................................................................
   1  13.40625730     8.926511399     7.668542775     7.483176379     7.460686815     7.458184411     7.457914111     7.457885084     7.457882104     7.457881950    
      7.457881916     7.457881791     7.457881640     7.457881578     7.457881598     7.457881626     7.457881617     7.457881590     7.457881571     7.457881580    
      7.457881607     7.457881642     7.457881674     7.457881713     7.457881728    
1
  CONCENTRATION IN LAYER   4 AT END OF TIME STEP   1 IN STRESS PERIOD    1
  ---------------------------------------------------------------------------

                1               2               3               4               5               6               7               8               9              10
               11              12              13              14              15              16              17              18              19              20
               21              22              23              24              25
 ................................................................................................................................................................
   1  7.457881730     7.974237348     7.605799209     7.478677000     7.460270792     7.458145278     7.457910428     7.457884686     7.457882073     7.457882017    
      7.457881984     7.457881812     7.457881604     7.457881525     7.457881558     7.457881598     7.457881585     7.457881545     7.457881518     7.457881530    
      7.457881566     7.457881613     7.457881654     7.457881707     7.457881727    
1
  CONCENTRATION IN LAYER   5 AT END OF TIME STEP   1 IN STRESS PERIOD    1
  ---------------------------------------------------------------------------

                1               2               3               4               5               6               7               8               9              10
               11              12              13              14              15              16              17              18              19              20
               21              22              23              24              25
 ................................................................................................................................................................
   1  7.457881730     7.640090456     7.536486326     7.472678731     7.459785359     7.458101208     7.457906246     7.457884255     7.457882038     7.457882053    
      7.457882025     7.457881827     7.457881587     7.457881499     7.457881541     7.457881589     7.457881572     7.457881524     7.457881490     7.457881503    
      7.457881544     7.457881597     7.457881642     7.457881701     7.457881726    
1
  CONCENTRATION IN LAYER   6 AT END OF TIME STEP   1 IN STRESS PERIOD    1
  ---------------------------------------------------------------------------

                1               2               3               4               5               6               7               8               9              10
               11              12              13              14              15              16              17              18              19              20
               21              22              23              24              25
 ................................................................................................................................................................
   1  7.457881730     7.522414341     7.494940957     7.467166094     7.459283820     7.458055849     7.457901972     7.457883836     7.457882005     7.457882058    
      7.457882037     7.457881833     7.457881585     7.457881496     7.457881540     7.457881591     7.457881573     7.457881522     7.457881485     7.457881497    
      7.457881538     7.457881592     7.457881637     7.457881698     7.457881726    
1
  CONCENTRATION IN LAYER   7 AT END OF TIME STEP   1 IN STRESS PERIOD    1
  ---------------------------------------------------------------------------

                1               2               3               4               5               6               7               8               9              10
               11              12              13              14              15              16              17              18              19              20
               21              22              23              24              25
 ................................................................................................................................................................
   1  7.457881730     7.480829121     7.474222860     7.463182998     7.458842574     7.458013837     7.457898002     7.457883465     7.457881972     7.457882042    
      7.457882025     7.457881832     7.457881593     7.457881507     7.457881549     7.457881599     7.457881582     7.457881531     7.457881495     7.457881506    
      7.457881544     7.457881596     7.457881639     7.457881697     7.457881726    
1
  CONCENTRATION IN LAYER   8 AT END OF TIME STEP   1 IN STRESS PERIOD    1
  ---------------------------------------------------------------------------

                1               2               3               4               5               6               7               8               9              10
               11              12              13              14              15              16              17              18              19              20
               21              22              23              24              25
 ................................................................................................................................................................
   1  7.457881730     7.466103640     7.464823521     7.460728410     7.458508425     7.457979431     7.457894705     7.457883172     7.457881942     7.457882011    
      7.457881996     7.457881823     7.457881608     7.457881529     7.457881566     7.457881611     7.457881596     7.457881551     7.457881517     7.457881527    
      7.457881560     7.457881607     7.457881646     7.457881699     7.457881726    
1
  CONCENTRATION IN LAYER   9 AT END OF TIME STEP   1 IN STRESS PERIOD    1
  ---------------------------------------------------------------------------

                1               2               3               4               5               6               7               8               9              10
               11              12              13              14              15              16              17              18              19              20
               21              22              23              24              25
 ................................................................................................................................................................
   1  7.457881730     7.460933899     7.460867318     7.459407738     7.458292793     7.457955460     7.457892380     7.457882987     7.457881915     7.457881958    
      7.457881945     7.457881807     7.457881634     7.457881567     7.457881596     7.457881631     7.457881620     7.457881584     7.457881557     7.457881564    
      7.457881591     7.457881629     7.457881661     7.457881704     7.457881726    
1
  CONCENTRATION IN LAYER  10 AT END OF TIME STEP   1 IN STRESS PERIOD    1
  ---------------------------------------------------------------------------

                1               2               3               4               5               6               7               8               9              10
               11              12              13              14              15              16              17              18              19              20
               21              22              23              24              25
 ................................................................................................................................................................
   1  7.457881730     7.459285927     7.459473451     7.458840151     7.458188098     7.457943260     7.457891210     7.457882937     7.457881886     7.457881858    
      7.457881846     7.457881781     7.457881688     7.457881643     7.457881654     7.457881674     7.457881670     7.457881654     7.457881638     7.457881640    
      7.457881652     7.457881672     7.457881690     7.457881713     7.457881727    

 CONCENTRATION WILL BE SAVED ON UNIT **** AT END OF TIME STEP    1, STRESS PERIOD    1



         TIME SUMMARY AT END OF TIME STEP    1 IN STRESS PERIOD    1
                    SECONDS     MINUTES      HOURS       DAYS        YEARS
                    -----------------------------------------------------------
   TIME STEP LENGTH 1.72800E+06  28800.      480.00      20.000     5.47570E-02
 STRESS PERIOD TIME 1.72800E+06  28800.      480.00      20.000     5.47570E-02
         TOTAL TIME 1.72800E+06  28800.      480.00      20.000     5.47570E-02


end timestep


start timestep kper="1" kstp="2" mode="normal"

1
  CONCENTRATION IN LAYER   1 AT END OF TIME STEP   2 IN STRESS PERIOD    1
  ---------------------------------------------------------------------------

                1               2               3               4               5               6               7               8               9              10
               11              12              13              14              15              16              17              18              19              20
               21              22              23              24              25
 ................................................................................................................................................................
   1  22.06021741     12.94195118     8.533021674     7.615534596     7.478701066     7.460518157     7.458208025     7.457921440     7.457886541     7.457882357    
      7.457881842     7.457881757     7.457881713     7.457881678     7.457881659     7.457881648     7.457881640     7.457881633     7.457881630     7.457881633    
      7.457881644     7.457881660     7.457881680     7.457881707     7.457881724    
1
  CONCENTRATION IN LAYER   2 AT END OF TIME STEP   2 IN STRESS PERIOD    1
  ---------------------------------------------------------------------------

                1               2               3               4               5               6               7               8               9              10
               11              12              13              14              15              16              17              18              19              20
               21              22              23              24              25
 ................................................................................................................................................................
   1  20.60841706     12.25006900     8.408446394     7.602371862     7.477493895     7.460401586     7.458195977     7.457920200     7.457886433     7.457882347    
      7.457881825     7.457881744     7.457881702     7.457881663     7.457881631     7.457881609     7.457881594     7.457881588     7.457881589     7.457881596    
      7.457881612     7.457881635     7.457881663     7.457881702     7.457881723    
1
  CONCENTRATION IN LAYER   3 AT END OF TIME STEP   2 IN STRESS PERIOD    1
  ---------------------------------------------------------------------------

                1               2               3               4               5               6               7               8               9              10
               11              12              13              14              15              16              17              18              19              20
               21              22              23              24              25
 ................................................................................................................................................................
   1  16.64253678     10.80007666     8.193491655     7.580910883     7.475426610     7.460188980     7.458173346     7.457917844     7.457886220     7.457882324    
      7.457881795     7.457881723     7.457881688     7.457881642     7.457881590     7.457881547     7.457881523     7.457881520     7.457881525     7.457881540    
      7.457881563     7.457881596     7.457881636     7.457881692     7.457881722    
1
  CONCENTRATION IN LAYER   4 AT END OF TIME STEP   2 IN STRESS PERIOD    1
  ---------------------------------------------------------------------------

                1               2               3               4               5               6               7               8               9              10
               11              12              13              14              15              16              17              18              19              20
               21              22              23              24              25
 ................................................................................................................................................................
   1  7.457881730     8.810412802     7.969828899     7.558213746     7.472898123     7.459908023     7.458142689     7.457914596     7.457885903     7.457882292    
      7.457881772     7.457881711     7.457881681     7.457881626     7.457881555     7.457881496     7.457881463     7.457881462     7.457881470     7.457881490    
      7.457881518     7.457881560     7.457881609     7.457881681     7.457881720    
1
  CONCENTRATION IN LAYER   5 AT END OF TIME STEP   2 IN STRESS PERIOD    1
  ---------------------------------------------------------------------------

                1               2               3               4               5               6               7               8               9              10
               11              12              13              14              15              16              17              18              19              20
               21              22              23              24              25
 ................................................................................................................................................................
   1  7.457881730     7.998338840     7.745916729     7.530440765     7.469976274     7.459588642     7.458107468     7.457910796     7.457885512     7.457882252    
      7.457881762     7.457881710     7.457881680     7.457881620     7.457881537     7.457881468     7.457881431     7.457881430     7.457881439     7.457881460    
      7.457881491     7.457881538     7.457881591     7.457881672     7.457881718    
1
  CONCENTRATION IN LAYER   6 AT END OF TIME STEP   2 IN STRESS PERIOD    1
  ---------------------------------------------------------------------------

                1               2               3               4               5               6               7               8               9              10
               11              12              13              14              15              16              17              18              19              20
               21              22              23              24              25
 ................................................................................................................................................................
   1  7.457881730     7.671862776     7.603450169     7.504888172     7.466956792     7.459257320     7.458071061     7.457906837     7.457885090     7.457882208    
      7.457881759     7.457881713     7.457881683     7.457881620     7.457881535     7.457881463     7.457881424     7.457881422     7.457881431     7.457881452    
      7.457881483     7.457881530     7.457881584     7.457881667     7.457881717    
1
  CONCENTRATION IN LAYER   7 AT END OF TIME STEP   2 IN STRESS PERIOD    1
  ---------------------------------------------------------------------------

                1               2               3               4               5               6               7               8               9              10
               11              12              13              14              15              16              17              18              19              20
               21              22              23              24              25
 ................................................................................................................................................................
   1  7.457881730     7.542068276     7.526816882     7.485840384     7.464257979     7.458946463     7.458036845     7.457903114     7.457884685     7.457882163    
      7.457881758     7.457881717     7.457881687     7.457881626     7.457881544     7.457881475     7.457881437     7.457881434     7.457881441     7.457881461    
      7.457881490     7.457881534     7.457881586     7.457881666     7.457881717    
1
  CONCENTRATION IN LAYER   8 AT END OF TIME STEP   2 IN STRESS PERIOD    1
  ---------------------------------------------------------------------------

                1               2               3               4               5               6               7               8               9              10
               11              12              13              14              15              16              17              18              19              20
               21              22              23              24              25
 ................................................................................................................................................................
   1  7.457881730     7.490976181     7.489378921     7.473613105     7.462164305     7.458687537     7.458008079     7.457899981     7.457884333     7.457882119    
      7.457881758     7.457881721     7.457881693     7.457881637     7.457881562     7.457881499     7.457881465     7.457881461     7.457881468     7.457881485    
      7.457881511     7.457881551     7.457881597     7.457881670     7.457881717    
1
  CONCENTRATION IN LAYER   9 AT END OF TIME STEP   2 IN STRESS PERIOD    1
  ---------------------------------------------------------------------------

                1               2               3               4               5               6               7               8               9              10
               11              12              13              14              15              16              17              18              19              20
               21              22              23              24              25
 ................................................................................................................................................................
   1  7.457881730     7.471218873     7.472691154     7.466702244     7.460772696     7.458504059     7.457987485     7.457897715     7.457884061     7.457882088    
      7.457881768     7.457881730     7.457881700     7.457881650     7.457881588     7.457881539     7.457881511     7.457881506     7.457881510     7.457881524    
      7.457881545     7.457881578     7.457881617     7.457881678     7.457881718    
1
  CONCENTRATION IN LAYER  10 AT END OF TIME STEP   2 IN STRESS PERIOD    1
  ---------------------------------------------------------------------------

                1               2               3               4               5               6               7               8               9              10
               11              12              13              14              15              16              17              18              19              20
               21              22              23              24              25
 ................................................................................................................................................................
   1  7.457881730     7.464508265     7.466438340     7.463673011     7.460087851     7.458409791     7.457976792     7.457896460     7.457883877     7.457882092    
      7.457881821     7.457881759     7.457881703     7.457881654     7.457881621     7.457881602     7.457881585     7.457881575     7.457881569     7.457881576    
      7.457881591     7.457881617     7.457881646     7.457881688     7.457881719    

 CONCENTRATION WILL BE SAVED ON UNIT **** AT END OF TIME STEP    2, STRESS PERIOD    1



         TIME SUMMARY AT END OF TIME STEP    2 IN STRESS PERIOD    1
                    SECONDS     MINUTES      HOURS       DAYS        YEARS
                    -----------------------------------------------------------
   TIME STEP LENGTH 1.72800E+06  28800.      480.00      20.000     5.47570E-02
 STRESS PERIOD TIME 3.45600E+06  57600.      960.00      40.000     0.10951    
         TOTAL TIME 3.45600E+06  57600.      960.00      40.000     0.10951    


end timestep


start timestep kper="1" kstp="3" mode="normal"

1
  CONCENTRATION IN LAYER   1 AT END OF TIME STEP   3 IN STRESS PERIOD    1
  ---------------------------------------------------------------------------

                1               2               3               4               5               6               7               8               9              10
               11              12              13              14              15              16              17              18              19              20
               21              22              23              24              25
 ................................................................................................................................................................
   1  25.94913099     15.99187621     9.704709802     7.892646280     7.530003213     7.468874187     7.459469052     7.458102500     7.457911585     7.457885744    
      7.457882293     7.457881818     7.457881715     7.457881663     7.457881629     7.457881609     7.457881595     7.457881587     7.457881584     7.457881588    
      7.457881601     7.457881623     7.457881651     7.457881688     7.457881717    
1
  CONCENTRATION IN LAYER   2 AT END OF TIME STEP   3 IN STRESS PERIOD    1
  ---------------------------------------------------------------------------

                1               2               3               4               5               6               7               8               9              10
               11              12              13              14              15              16              17              18              19              20
               21              22              23              24              25
 ................................................................................................................................................................
   1  23.86239201     14.87166645     9.449233828     7.857933863     7.526056537     7.468418364     7.459414078     7.458095836     7.457910799     7.457885653    
      7.457882277     7.457881810     7.457881701     7.457881640     7.457881598     7.457881571     7.457881555     7.457881547     7.457881545     7.457881552    
      7.457881570     7.457881599     7.457881635     7.457881681     7.457881715    
1
  CONCENTRATION IN LAYER   3 AT END OF TIME STEP   3 IN STRESS PERIOD    1
  ---------------------------------------------------------------------------

                1               2               3               4               5               6               7               8               9              10
               11              12              13              14              15              16              17              18              19              20
               21              22              23              24              25
 ................................................................................................................................................................
   1  18.57347276     12.63728958     9.011009841     7.800267906     7.519167487     7.467577914     7.459310290     7.458083189     7.457909306     7.457885480    
      7.457882250     7.457881798     7.457881680     7.457881605     7.457881549     7.457881514     7.457881493     7.457881485     7.457881485     7.457881496    
      7.457881521     7.457881561     7.457881608     7.457881670     7.457881713    
1
  CONCENTRATION IN LAYER   4 AT END OF TIME STEP   3 IN STRESS PERIOD    1
  ---------------------------------------------------------------------------

                1               2               3               4               5               6               7               8               9              10
               11              12              13              14              15              16              17              18              19              20
               21              22              23              24              25
 ................................................................................................................................................................
   1  7.457881730     9.754976573     8.537819388     7.735961200     7.510537295     7.466455181     7.459168877     7.458065875     7.457907256     7.457885244    
      7.457882219     7.457881790     7.457881665     7.457881577     7.457881507     7.457881463     7.457881438     7.457881429     7.457881430     7.457881444    
      7.457881476     7.457881524     7.457881581     7.457881657     7.457881710    
1
  CONCENTRATION IN LAYER   5 AT END OF TIME STEP   3 IN STRESS PERIOD    1
  ---------------------------------------------------------------------------

                1               2               3               4               5               6               7               8               9              10
               11              12              13              14              15              16              17              18              19              20
               21              22              23              24              25
 ................................................................................................................................................................
   1  7.457881730     8.460011636     8.090646045     7.661330696     7.500605497     7.465166542     7.459005123     7.458045705     7.457904859     7.457884966    
      7.457882188     7.457881787     7.457881659     7.457881562     7.457881484     7.457881434     7.457881405     7.457881395     7.457881396     7.457881411    
      7.457881446     7.457881500     7.457881562     7.457881647     7.457881707    
1
  CONCENTRATION IN LAYER   6 AT END OF TIME STEP   3 IN STRESS PERIOD    1
  ---------------------------------------------------------------------------

                1               2               3               4               5               6               7               8               9              10
               11              12              13              14              15              16              17              18              19              20
               21              22              23              24              25
 ................................................................................................................................................................
   1  7.457881730     7.889102810     7.794814473     7.592932289     7.490367337     7.463820658     7.458834602     7.458024715     7.457902356     7.457884675    
      7.457882156     7.457881786     7.457881659     7.457881560     7.457881479     7.457881426     7.457881396     7.457881385     7.457881386     7.457881400    
      7.457881435     7.457881490     7.457881553     7.457881641     7.457881706    
1
  CONCENTRATION IN LAYER   7 AT END OF TIME STEP   3 IN STRESS PERIOD    1
  ---------------------------------------------------------------------------

                1               2               3               4               5               6               7               8               9              10
               11              12              13              14              15              16              17              18              19              20
               21              22              23              24              25
 ................................................................................................................................................................
   1  7.457881730     7.641325228     7.626813727     7.540877795     7.481132435     7.462546413     7.458673175     7.458004953     7.457899996     7.457884397    
      7.457882126     7.457881786     7.457881665     7.457881568     7.457881489     7.457881437     7.457881407     7.457881396     7.457881395     7.457881409    
      7.457881442     7.457881494     7.457881555     7.457881640     7.457881705    
1
  CONCENTRATION IN LAYER   8 AT END OF TIME STEP   3 IN STRESS PERIOD    1
  ---------------------------------------------------------------------------

                1               2               3               4               5               6               7               8               9              10
               11              12              13              14              15              16              17              18              19              20
               21              22              23              24              25
 ................................................................................................................................................................
   1  7.457881730     7.535156551     7.540542715     7.506226782     7.473829984     7.461472706     7.458536500     7.457988326     7.457898006     7.457884160    
      7.457882101     7.457881787     7.457881673     7.457881582     7.457881509     7.457881462     7.457881435     7.457881424     7.457881422     7.457881434    
      7.457881463     7.457881511     7.457881567     7.457881645     7.457881706    
1
  CONCENTRATION IN LAYER   9 AT END OF TIME STEP   3 IN STRESS PERIOD    1
  ---------------------------------------------------------------------------

                1               2               3               4               5               6               7               8               9              10
               11              12              13              14              15              16              17              18              19              20
               21              22              23              24              25
 ................................................................................................................................................................
   1  7.457881730     7.491169927     7.499818411     7.486106214     7.468904748     7.460703538     7.458438047     7.457976400     7.457896572     7.457883989    
      7.457882087     7.457881791     7.457881685     7.457881603     7.457881540     7.457881501     7.457881477     7.457881466     7.457881463     7.457881472    
      7.457881496     7.457881537     7.457881585     7.457881652     7.457881707    
1
  CONCENTRATION IN LAYER  10 AT END OF TIME STEP   3 IN STRESS PERIOD    1
  ---------------------------------------------------------------------------

                1               2               3               4               5               6               7               8               9              10
               11              12              13              14              15              16              17              18              19              20
               21              22              23              24              25
 ................................................................................................................................................................
   1  7.457881730     7.475520451     7.483724432     7.477167502     7.466466617     7.460305174     7.458386868     7.457970208     7.457895826     7.457883904    
      7.457882083     7.457881798     7.457881702     7.457881634     7.457881583     7.457881550     7.457881529     7.457881517     7.457881512     7.457881518    
      7.457881537     7.457881569     7.457881608     7.457881661     7.457881708    

 CONCENTRATION WILL BE SAVED ON UNIT **** AT END OF TIME STEP    3, STRESS PERIOD    1



         TIME SUMMARY AT END OF TIME STEP    3 IN STRESS PERIOD    1
                    SECONDS     MINUTES      HOURS       DAYS        YEARS
                    -----------------------------------------------------------
   TIME STEP LENGTH 1.72800E+06  28800.      480.00      20.000     5.47570E-02
 STRESS PERIOD TIME 5.18400E+06  86400.      1440.0      60.000     0.16427    
         TOTAL TIME 5.18400E+06  86400.      1440.0      60.000     0.16427    


end timestep


start timestep kper="1" kstp="4" mode="normal"

1
  CONCENTRATION IN LAYER   1 AT END OF TIME STEP   4 IN STRESS PERIOD    1
  ---------------------------------------------------------------------------

                1               2               3               4               5               6               7               8               9              10
               11              12              13              14              15              16              17              18              19              20
               21              22              23              24              25
 ................................................................................................................................................................
   1  28.52587923     18.61999229     11.13224709     8.356530587     7.641190029     7.491120414     7.463438118     7.458758080     7.458014207     7.457901123    
      7.457884533     7.457882135     7.457881755     7.457881657     7.457881609     7.457881578     7.457881557     7.457881546     7.457881543     7.457881548    
      7.457881563     7.457881588     7.457881622     7.457881666     7.457881706    
1
  CONCENTRATION IN LAYER   2 AT END OF TIME STEP   4 IN STRESS PERIOD    1
  ---------------------------------------------------------------------------

                1               2               3               4               5               6               7               8               9              10
               11              12              13              14              15              16              17              18              19              20
               21              22              23              24              25
 ................................................................................................................................................................
   1  25.97789792     17.13391362     10.72477256     8.287558930     7.631601006     7.489809659     7.463255903     7.458733082     7.458010888     7.457900698    
      7.457884471     7.457882117     7.457881739     7.457881636     7.457881582     7.457881545     7.457881521     7.457881509     7.457881508     7.457881516    
      7.457881535     7.457881567     7.457881606     7.457881659     7.457881704    
1
  CONCENTRATION IN LAYER   3 AT END OF TIME STEP   4 IN STRESS PERIOD    1
  ---------------------------------------------------------------------------

                1               2               3               4               5               6               7               8               9              10
               11              12              13              14              15              16              17              18              19              20
               21              22              23              24              25
 ................................................................................................................................................................
   1  19.79112750     14.25592056     10.02581085     8.171065255     7.614609490     7.487373685     7.462910637     7.458685564     7.458004584     7.457899894    
      7.457884356     7.457882086     7.457881713     7.457881604     7.457881540     7.457881495     7.457881465     7.457881452     7.457881454     7.457881466    
      7.457881492     7.457881532     7.457881581     7.457881647     7.457881701    
1
  CONCENTRATION IN LAYER   4 AT END OF TIME STEP   4 IN STRESS PERIOD    1
  ---------------------------------------------------------------------------

                1               2               3               4               5               6               7               8               9              10
               11              12              13              14              15              16              17              18              19              20
               21              22              23              24              25
 ................................................................................................................................................................
   1  7.457881730     10.67277633     9.250376692     8.036551321     7.592968788     7.484093827     7.462437880     7.458620332     7.457995932     7.457898793    
      7.457884207     7.457882056     7.457881692     7.457881577     7.457881503     7.457881449     7.457881414     7.457881399     7.457881403     7.457881418    
      7.457881449     7.457881497     7.457881555     7.457881633     7.457881697    
1
  CONCENTRATION IN LAYER   5 AT END OF TIME STEP   4 IN STRESS PERIOD    1
  ---------------------------------------------------------------------------

                1               2               3               4               5               6               7               8               9              10
               11              12              13              14              15              16              17              18              19              20
               21              22              23              24              25
 ................................................................................................................................................................
   1  7.457881730     8.954138489     8.541122197     7.885453437     7.568116803     7.480299461     7.461886658     7.458544059     7.457985812     7.457897505    
      7.457884040     7.457882030     7.457881680     7.457881562     7.457881482     7.457881421     7.457881381     7.457881365     7.457881369     7.457881386    
      7.457881420     7.457881473     7.457881536     7.457881622     7.457881694    
1
  CONCENTRATION IN LAYER   6 AT END OF TIME STEP   4 IN STRESS PERIOD    1
  ---------------------------------------------------------------------------

                1               2               3               4               5               6               7               8               9              10
               11              12              13              14              15              16              17              18              19              20
               21              22              23              24              25
 ................................................................................................................................................................
   1  7.457881730     8.143960980     8.058830070     7.747445001     7.542559480     7.476315039     7.461308968     7.458464372     7.457975251     7.457896158    
      7.457883870     7.457882010     7.457881678     7.457881559     7.457881476     7.457881412     7.457881370     7.457881354     7.457881357     7.457881374    
      7.457881409     7.457881462     7.457881527     7.457881615     7.457881691    
1
  CONCENTRATION IN LAYER   7 AT END OF TIME STEP   4 IN STRESS PERIOD    1
  ---------------------------------------------------------------------------

                1               2               3               4               5               6               7               8               9              10
               11              12              13              14              15              16              17              18              19              20
               21              22              23              24              25
 ................................................................................................................................................................
   1  7.457881730     7.767584793     7.774455820     7.640544319     7.519336157     7.472518500     7.460759015     7.458389092     7.457965304     7.457894886    
      7.457883714     7.457881995     7.457881681     7.457881566     7.457881484     7.457881421     7.457881380     7.457881363     7.457881365     7.457881381    
      7.457881414     7.457881465     7.457881528     7.457881615     7.457881690    
1
  CONCENTRATION IN LAYER   8 AT END OF TIME STEP   4 IN STRESS PERIOD    1
  ---------------------------------------------------------------------------

                1               2               3               4               5               6               7               8               9              10
               11              12              13              14              15              16              17              18              19              20
               21              22              23              24              25
 ................................................................................................................................................................
   1  7.457881730     7.595299858     7.622937147     7.567186233     7.500714804     7.469296430     7.460291061     7.458325592     7.457956939     7.457893813    
      7.457883585     7.457881986     7.457881690     7.457881580     7.457881503     7.457881444     7.457881405     7.457881388     7.457881389     7.457881403    
      7.457881433     7.457881480     7.457881538     7.457881619     7.457881691    
1
  CONCENTRATION IN LAYER   9 AT END OF TIME STEP   4 IN STRESS PERIOD    1
  ---------------------------------------------------------------------------

                1               2               3               4               5               6               7               8               9              10
               11              12              13              14              15              16              17              18              19              20
               21              22              23              24              25
 ................................................................................................................................................................
   1  7.457881730     7.520503531     7.546998488     7.524186255     7.488114558     7.466974683     7.459952080     7.458279948     7.457950936     7.457893041    
      7.457883497     7.457881985     7.457881704     7.457881600     7.457881529     7.457881477     7.457881443     7.457881426     7.457881425     7.457881436    
      7.457881461     7.457881503     7.457881555     7.457881626     7.457881692    
1
  CONCENTRATION IN LAYER  10 AT END OF TIME STEP   4 IN STRESS PERIOD    1
  ---------------------------------------------------------------------------

                1               2               3               4               5               6               7               8               9              10
               11              12              13              14              15              16              17              18              19              20
               21              22              23              24              25
 ................................................................................................................................................................
   1  7.457881730     7.492915265     7.515742073     7.504805525     7.481860879     7.465767696     7.459775055     7.458256212     7.457947811     7.457892642    
      7.457883461     7.457881998     7.457881725     7.457881626     7.457881562     7.457881516     7.457881485     7.457881469     7.457881465     7.457881472    
      7.457881492     7.457881527     7.457881572     7.457881633     7.457881693    

 CONCENTRATION WILL BE SAVED ON UNIT **** AT END OF TIME STEP    4, STRESS PERIOD    1



         TIME SUMMARY AT END OF TIME STEP    4 IN STRESS PERIOD    1
                    SECONDS     MINUTES      HOURS       DAYS        YEARS
                    -----------------------------------------------------------
   TIME STEP LENGTH 1.72800E+06  28800.      480.00      20.000     5.47570E-02
 STRESS PERIOD TIME 6.91200E+06 1.15200E+05  1920.0      80.000     0.21903    
         TOTAL TIME 6.91200E+06 1.15200E+05  1920.0      80.000     0.21903    


end timestep


start timestep kper="1" kstp="5" mode="normal"

1
  CONCENTRATION IN LAYER   1 AT END OF TIME STEP   5 IN STRESS PERIOD    1
  ---------------------------------------------------------------------------

                1               2               3               4               5               6               7               8               9              10
               11              12              13              14              15              16              17              18              19              20
               21              22              23              24              25
 ................................................................................................................................................................
   1  30.24176304     20.74299228     12.65120322     9.004728948     7.837929857     7.538968421     7.473468956     7.460656069     7.458348055     7.457956798    
      7.457893412     7.457883507     7.457881960     7.457881680     7.457881596     7.457881554     7.457881526     7.457881510     7.457881507     7.457881512    
      7.457881528     7.457881555     7.457881593     7.457881642     7.457881692    
1
  CONCENTRATION IN LAYER   2 AT END OF TIME STEP   5 IN STRESS PERIOD    1
  ---------------------------------------------------------------------------

                1               2               3               4               5               6               7               8               9              10
               11              12              13              14              15              16              17              18              19              20
               21              22              23              24              25
 ................................................................................................................................................................
   1  27.37418179     18.97130697     12.09029767     8.890055149     7.818743516     7.535892971     7.472980098     7.460580781     7.458336981     7.457955237    
      7.457893192     7.457883466     7.457881941     7.457881660     7.457881572     7.457881525     7.457881495     7.457881478     7.457881477     7.457881484    
      7.457881503     7.457881536     7.457881579     7.457881635     7.457881690    
1
  CONCENTRATION IN LAYER   3 AT END OF TIME STEP   5 IN STRESS PERIOD    1
  ---------------------------------------------------------------------------

                1               2               3               4               5               6               7               8               9              10
               11              12              13              14              15              16              17              18              19              20
               21              22              23              24              25
 ................................................................................................................................................................
   1  20.58516648     15.60142518     11.12581920     8.693788691     7.784363822     7.530144829     7.472051290     7.460437468     7.458315933     7.457952277    
      7.457892778     7.457883394     7.457881910     7.457881628     7.457881534     7.457881480     7.457881445     7.457881428     7.457881429     7.457881440    
      7.457881464     7.457881504     7.457881556     7.457881623     7.457881686    
1
  CONCENTRATION IN LAYER   4 AT END OF TIME STEP   5 IN STRESS PERIOD    1
  ---------------------------------------------------------------------------

                1               2               3               4               5               6               7               8               9              10
               11              12              13              14              15              16              17              18              19              20
               21              22              23              24              25
 ................................................................................................................................................................
   1  7.457881730     11.49457036     10.03428481     8.461902790     7.740079050     7.522359974     7.470774522     7.460240269     7.458287024     7.457948219    
      7.457892219     7.457883305     7.457881880     7.457881601     7.457881499     7.457881438     7.457881398     7.457881380     7.457881382     7.457881396    
      7.457881426     7.457881473     7.457881531     7.457881609     7.457881682    
1
  CONCENTRATION IN LAYER   5 AT END OF TIME STEP   5 IN STRESS PERIOD    1
  ---------------------------------------------------------------------------

                1               2               3               4               5               6               7               8               9              10
               11              12              13              14              15              16              17              18              19              20
               21              22              23              24              25
 ................................................................................................................................................................
   1  7.457881730     9.430755614     9.053885150     8.206660263     7.689266878     7.513296248     7.469277644     7.460008972     7.458253174     7.457943476    
      7.457891574     7.457883212     7.457881858     7.457881584     7.457881478     7.457881411     7.457881367     7.457881347     7.457881350     7.457881365    
      7.457881398     7.457881449     7.457881513     7.457881598     7.457881678    
1
  CONCENTRATION IN LAYER   6 AT END OF TIME STEP   5 IN STRESS PERIOD    1
  ---------------------------------------------------------------------------

                1               2               3               4               5               6               7               8               9              10
               11              12              13              14              15              16              17              18              19              20
               21              22              23              24              25
 ................................................................................................................................................................
   1  7.457881730     8.407376762     8.374175736     7.973714914     7.637011974     7.503735059     7.467701282     7.459766572     7.458217808     7.457938526    
      7.457890906     7.457883122     7.457881845     7.457881579     7.457881472     7.457881402     7.457881356     7.457881335     7.457881337     7.457881353    
      7.457881386     7.457881438     7.457881503     7.457881591     7.457881675    
1
  CONCENTRATION IN LAYER   7 AT END OF TIME STEP   5 IN STRESS PERIOD    1
  ---------------------------------------------------------------------------

                1               2               3               4               5               6               7               8               9              10
               11              12              13              14              15              16              17              18              19              20
               21              22              23              24              25
 ................................................................................................................................................................
   1  7.457881730     7.904059441     7.966345386     7.788672935     7.589064860     7.494589065     7.466195370     7.459536977     7.458184463     7.457933860    
      7.457890279     7.457883043     7.457881840     7.457881584     7.457881478     7.457881409     7.457881364     7.457881342     7.457881343     7.457881358    
      7.457881389     7.457881440     7.457881503     7.457881590     7.457881674    
1
  CONCENTRATION IN LAYER   8 AT END OF TIME STEP   5 IN STRESS PERIOD    1
  ---------------------------------------------------------------------------

                1               2               3               4               5               6               7               8               9              10
               11              12              13              14              15              16              17              18              19              20
               21              22              23              24              25
 ................................................................................................................................................................
   1  7.457881730     7.664582489     7.736607170     7.661511538     7.550686159     7.486806440     7.464908786     7.459342764     7.458156403     7.457929933    
      7.457889753     7.457882982     7.457881842     7.457881597     7.457881495     7.457881430     7.457881386     7.457881364     7.457881364     7.457881376    
      7.457881405     7.457881452     7.457881512     7.457881593     7.457881674    
1
  CONCENTRATION IN LAYER   9 AT END OF TIME STEP   5 IN STRESS PERIOD    1
  ---------------------------------------------------------------------------

                1               2               3               4               5               6               7               8               9              10
               11              12              13              14              15              16              17              18              19              20
               21              22              23              24              25
 ................................................................................................................................................................
   1  7.457881730     7.556748636     7.616199725     7.585851693     7.524703232     7.481192167     7.463973334     7.459202768     7.458136255     7.457927111    
      7.457889379     7.457882944     7.457881851     7.457881615     7.457881519     7.457881458     7.457881417     7.457881396     7.457881394     7.457881404    
      7.457881429     7.457881471     7.457881525     7.457881599     7.457881675    
1
  CONCENTRATION IN LAYER  10 AT END OF TIME STEP   5 IN STRESS PERIOD    1
  ---------------------------------------------------------------------------

                1               2               3               4               5               6               7               8               9              10
               11              12              13              14              15              16              17              18              19              20
               21              22              23              24              25
 ................................................................................................................................................................
   1  7.457881730     7.515822437     7.565114992     7.551258328     7.511780400     7.478270821     7.463483292     7.459129797     7.458125768     7.457925644    
      7.457889193     7.457882935     7.457881869     7.457881639     7.457881548     7.457881491     7.457881453     7.457881431     7.457881427     7.457881434    
      7.457881455     7.457881491     7.457881540     7.457881605     7.457881676    

 CONCENTRATION WILL BE SAVED ON UNIT **** AT END OF TIME STEP    5, STRESS PERIOD    1



         TIME SUMMARY AT END OF TIME STEP    5 IN STRESS PERIOD    1
                    SECONDS     MINUTES      HOURS       DAYS        YEARS
                    -----------------------------------------------------------
   TIME STEP LENGTH 1.72800E+06  28800.      480.00      20.000     5.47570E-02
 STRESS PERIOD TIME 8.64000E+06 1.44000E+05  2400.0      100.00     0.27379    
         TOTAL TIME 8.64000E+06 1.44000E+05  2400.0      100.00     0.27379    


end timestep


start timestep kper="1" kstp="6" mode="normal"

1
  CONCENTRATION IN LAYER   1 AT END OF TIME STEP   6 IN STRESS PERIOD    1
  ---------------------------------------------------------------------------

                1               2               3               4               5               6               7               8               9              10
               11              12              13              14              15              16              17              18              19              20
               21              22              23              24              25
 ................................................................................................................................................................
   1  31.39313103     22.39572023     14.13094686     9.802811125     8.138086887     7.626754147     7.494974476     7.465301056     7.459264148     7.458125679    
      7.457922984     7.457888460     7.457882763     7.457881803     7.457881604     7.457881537     7.457881501     7.457881481     7.457881476     7.457881481    
      7.457881496     7.457881525     7.457881564     7.457881617     7.457881676    
1
  CONCENTRATION IN LAYER   2 AT END OF TIME STEP   6 IN STRESS PERIOD    1
  ---------------------------------------------------------------------------

                1               2               3               4               5               6               7               8               9              10
               11              12              13              14              15              16              17              18              19              20
               21              22              23              24              25
 ................................................................................................................................................................
   1  28.30786345     20.41192615     13.42849855     9.634273600     8.104728461     7.620539368     7.493851845     7.465108094     7.459232894     7.458120883    
      7.457922272     7.457888348     7.457882734     7.457881782     7.457881581     7.457881511     7.457881474     7.457881453     7.457881449     7.457881456    
      7.457881474     7.457881507     7.457881552     7.457881610     7.457881673    
1
  CONCENTRATION IN LAYER   3 AT END OF TIME STEP   6 IN STRESS PERIOD    1
  ---------------------------------------------------------------------------

                1               2               3               4               5               6               7               8               9              10
               11              12              13              14              15              16              17              18              19              20
               21              22              23              24              25
 ................................................................................................................................................................
   1  21.11431277     16.68077338     12.21679844     9.342877255     8.044459024     7.608875033     7.491714664     7.464740411     7.459173460     7.458111779    
      7.457920924     7.457888140     7.457882684     7.457881749     7.457881546     7.457881471     7.457881430     7.457881408     7.457881407     7.457881416    
      7.457881439     7.457881479     7.457881531     7.457881599     7.457881669    
1
  CONCENTRATION IN LAYER   4 AT END OF TIME STEP   6 IN STRESS PERIOD    1
  ---------------------------------------------------------------------------

                1               2               3               4               5               6               7               8               9              10
               11              12              13              14              15              16              17              18              19              20
               21              22              23              24              25
 ................................................................................................................................................................
   1  7.457881730     12.19370238     10.82515286     8.993261540     7.966185487     7.593005938     7.488768217     7.464233606     7.459091758     7.458099291    
      7.457919085     7.457887866     7.457882627     7.457881719     7.457881513     7.457881432     7.457881387     7.457881364     7.457881364     7.457881376    
      7.457881404     7.457881450     7.457881508     7.457881585     7.457881664    
1
  CONCENTRATION IN LAYER   5 AT END OF TIME STEP   6 IN STRESS PERIOD    1
  ---------------------------------------------------------------------------

                1               2               3               4               5               6               7               8               9              10
               11              12              13              14              15              16              17              18              19              20
               21              22              23              24              25
 ................................................................................................................................................................
   1  7.457881730     9.859380614     9.588822903     8.613022990     7.876298313     7.574436981     7.485300286     7.463637834     7.458995997     7.458084684    
      7.457916942     7.457887556     7.457882574     7.457881697     7.457881492     7.457881407     7.457881359     7.457881334     7.457881335     7.457881348    
      7.457881378     7.457881428     7.457881490     7.457881574     7.457881660    
1
  CONCENTRATION IN LAYER   6 AT END OF TIME STEP   6 IN STRESS PERIOD    1
  ---------------------------------------------------------------------------

                1               2               3               4               5               6               7               8               9              10
               11              12              13              14              15              16              17              18              19              20
               21              22              23              24              25
 ................................................................................................................................................................
   1  7.457881730     8.652482124     8.725322535     8.263246527     7.783572660     7.554793189     7.481637259     7.463012072     7.458895829     7.458069432    
      7.457914709     7.457887239     7.457882528     7.457881687     7.457881484     7.457881398     7.457881348     7.457881321     7.457881322     7.457881335    
      7.457881366     7.457881417     7.457881481     7.457881567     7.457881657    
1
  CONCENTRATION IN LAYER   7 AT END OF TIME STEP   6 IN STRESS PERIOD    1
  ---------------------------------------------------------------------------

                1               2               3               4               5               6               7               8               9              10
               11              12              13              14              15              16              17              18              19              20
               21              22              23              24              25
 ................................................................................................................................................................
   1  7.457881730     8.037395759     8.191264350     7.983418690     7.698472412     7.535984178     7.478129642     7.462418050     7.458801276     7.458055055    
      7.457912607     7.457886947     7.457882491     7.457881687     7.457881489     7.457881404     7.457881353     7.457881326     7.457881326     7.457881338    
      7.457881368     7.457881417     7.457881480     7.457881565     7.457881655    
1
  CONCENTRATION IN LAYER   8 AT END OF TIME STEP   6 IN STRESS PERIOD    1
  ---------------------------------------------------------------------------

                1               2               3               4               5               6               7               8               9              10
               11              12              13              14              15              16              17              18              19              20
               21              22              23              24              25
 ................................................................................................................................................................
   1  7.457881730     7.736189713     7.876815931     7.789989112     7.630559944     7.519989370     7.475126197     7.461914345     7.458721607     7.458042950    
      7.457910838     7.457886705     7.457882467     7.457881696     7.457881504     7.457881421     7.457881371     7.457881344     7.457881343     7.457881354    
      7.457881381     7.457881427     7.457881487     7.457881568     7.457881655    
1
  CONCENTRATION IN LAYER   9 AT END OF TIME STEP   6 IN STRESS PERIOD    1
  ---------------------------------------------------------------------------

                1               2               3               4               5               6               7               8               9              10
               11              12              13              14              15              16              17              18              19              20
               21              22              23              24              25
 ................................................................................................................................................................
   1  7.457881730     7.596671175     7.706159916     7.673258459     7.584561294     7.508462723     7.472938374     7.461550340     7.458664327     7.458034245    
      7.457909567     7.457886536     7.457882458     7.457881711     7.457881526     7.457881446     7.457881398     7.457881372     7.457881368     7.457881377    
[...]
      13.70143705     13.60706012     13.46888818     13.27317425     12.94897090    
1
  CONCENTRATION IN LAYER   9 AT END OF TIME STEP  99 IN STRESS PERIOD    1
  ---------------------------------------------------------------------------

                1               2               3               4               5               6               7               8               9              10
               11              12              13              14              15              16              17              18              19              20
               21              22              23              24              25
 ................................................................................................................................................................
   1  7.457881730     7.885486955     8.868099310     10.04720552     11.09158347     11.89839353     12.48503333     12.90037986     13.19122771     13.39405856    
      13.53531519     13.63364729     13.70207122     13.74961201     13.78246539     13.80427476     13.81181807     13.80821461     13.79299485     13.75922536    
      13.69969088     13.60587876     13.46808472     13.27262569     12.94863481    
1
  CONCENTRATION IN LAYER  10 AT END OF TIME STEP  99 IN STRESS PERIOD    1
  ---------------------------------------------------------------------------

                1               2               3               4               5               6               7               8               9              10
               11              12              13              14              15              16              17              18              19              20
               21              22              23              24              25
 ................................................................................................................................................................
   1  7.457881730     7.779270013     8.615336324     9.744069171     10.82554541     11.69496554     12.33818460     12.79681918     13.11884595     13.34362357    
      13.50020311     13.60920715     13.68505946     13.73777090     13.77423043     13.79863765     13.80799381     13.80515953     13.79090287     13.75784958    
      13.69877443     13.60525884     13.46766269     13.27233738     12.94845812    

 CONCENTRATION WILL BE SAVED ON UNIT **** AT END OF TIME STEP   99, STRESS PERIOD    1



         TIME SUMMARY AT END OF TIME STEP   99 IN STRESS PERIOD    1
                    SECONDS     MINUTES      HOURS       DAYS        YEARS
                    -----------------------------------------------------------
   TIME STEP LENGTH 1.72800E+06  28800.      480.00      20.000     5.47570E-02
 STRESS PERIOD TIME 1.71072E+08 2.85120E+06  47520.      1980.0      5.4209    
         TOTAL TIME 1.71072E+08 2.85120E+06  47520.      1980.0      5.4209    


end timestep


start timestep kper="1" kstp="100" mode="normal"


 SSM PACKAGE (SSM) FLOW RATES   PERIOD      1   STEP      100
 ------------------------------------------------------------------------------------------------
   NUMBER   CELLID                   BOUND Q        SSM CONC          RATE         PACKAGE NAME  
 ------------------------------------------------------------------------------------------------
     1      (4,1,1)               0.0000000       0.0000000       0.0000000            CHD       
     2      (5,1,1)               0.0000000       0.0000000       0.0000000            CHD       
     3      (6,1,1)               0.0000000       0.0000000       0.0000000            CHD       
     4      (7,1,1)               0.0000000       0.0000000       0.0000000            CHD       
     5      (8,1,1)               0.0000000       0.0000000       0.0000000            CHD       
     6      (9,1,1)               0.0000000       0.0000000       0.0000000            CHD       
     7      (10,1,1)              0.0000000       0.0000000       0.0000000            CHD       
     8      (1,1,25)             -2.08333338E-02  13.030912      -0.27147733           CHD       
     9      (2,1,25)             -2.08333338E-02  13.030734      -0.27147364           CHD       
     10     (3,1,25)             -2.08333338E-02  13.030397      -0.27146661           CHD       
     11     (4,1,25)             -2.08333338E-02  13.029932      -0.27145693           CHD       
     12     (5,1,25)             -2.08333338E-02  13.029386      -0.27144555           CHD       
     13     (6,1,25)             -2.08333338E-02  13.028812      -0.27143359           CHD       
     14     (7,1,25)             -2.08333338E-02  13.028266      -0.27142222           CHD       
     15     (8,1,25)             -2.08333338E-02  13.027802      -0.27141254           CHD       
     16     (9,1,25)             -2.08333338E-02  13.027464      -0.27140552           CHD       
     17     (10,1,25)            -2.08333338E-02  13.027287      -0.27140182           CHD       
     1      (1,1,1)               2.08333329E-02  49.852151       1.0385865          CHDTAIL     
     2      (2,1,1)               2.08333329E-02  49.852151       1.0385865          CHDTAIL     
     3      (3,1,1)               2.08333329E-02  49.852151       1.0385865          CHDTAIL     
 ------------------------------------------------------------------------------------------------




 CNC PACKAGE (CNC) FLOW RATES   PERIOD      1   STEP      100
 -----------------------------------------------
   NUMBER   CELLID                    RATE      
 -----------------------------------------------
     1      (4,1,1)              -1.1161966     
     2      (5,1,1)               0.13540575    
     3      (6,1,1)               0.14438359    
     4      (7,1,1)               0.14924061    
     5      (8,1,1)               0.15182815    
     6      (9,1,1)               0.15314542    
     7      (10,1,1)              0.15369864    
 -----------------------------------------------



1
  CONCENTRATION IN LAYER   1 AT END OF TIME STEP 100 IN STRESS PERIOD    1
  ---------------------------------------------------------------------------

                1               2               3               4               5               6               7               8               9              10
               11              12              13              14              15              16              17              18              19              20
               21              22              23              24              25
 ................................................................................................................................................................
   1  33.91740370     27.14764074     21.75170723     18.79226473     17.11941927     16.08007229     15.39247149     14.92340973     14.59925216     14.37412933    
      14.21752281     14.10852273     14.03263393     13.97973283     13.94251572     13.91503434     13.89194681     13.86826815     13.83878531     13.79729246    
      13.73611496     13.64611365     13.51699854     13.33457910     13.03091177    
1
  CONCENTRATION IN LAYER   2 AT END OF TIME STEP 100 IN STRESS PERIOD    1
  ---------------------------------------------------------------------------

                1               2               3               4               5               6               7               8               9              10
               11              12              13              14              15              16              17              18              19              20
               21              22              23              24              25
 ................................................................................................................................................................
   1  30.35682713     24.61867599     20.52329804     18.18261275     16.76853413     15.85505889     15.24065834     14.81887675     14.52673083     14.32369086    
      14.18241808     14.08408635     14.01562347     13.96789233     13.93428301     13.90930274     13.88792400     13.86543327     13.83680007     13.79592032    
      13.73517888     13.64548013     13.51657039     13.33428837     13.03073431    
1
  CONCENTRATION IN LAYER   3 AT END OF TIME STEP 100 IN STRESS PERIOD    1
  ---------------------------------------------------------------------------

                1               2               3               4               5               6               7               8               9              10
               11              12              13              14              15              16              17              18              19              20
               21              22              23              24              25
 ................................................................................................................................................................
   1  22.28105410     19.95505699     18.38646461     17.08185022     16.11447968     15.42989403     14.95251624     14.62017037     14.38880616     14.22775186    
      14.11564401     14.03760511     13.98326746     13.94537021     13.91862508     13.89840499     13.88026963     13.86003649     13.83302168     13.79331067    
      13.73339962     13.64427615     13.51575651     13.33373554     13.03039678    
1
  CONCENTRATION IN LAYER   4 AT END OF TIME STEP 100 IN STRESS PERIOD    1
  ---------------------------------------------------------------------------

                1               2               3               4               5               6               7               8               9              10
               11              12              13              14              15              16              17              18              19              20
               21              22              23              24              25
 ................................................................................................................................................................
   1  7.457881730     14.42839516     15.89713063     15.67304559     15.23955712     14.85054074     14.55729435     14.34694906     14.19900854     14.09570442    
      14.02373545     13.97362812     13.93873287     13.91437084     13.89707762     13.88341958     13.86972741     13.85259635     13.82781509     13.78971924    
      13.73095361     13.64262139     13.51463747     13.33297503     13.02993226    
1
  CONCENTRATION IN LAYER   5 AT END OF TIME STEP 100 IN STRESS PERIOD    1
  ---------------------------------------------------------------------------

                1               2               3               4               5               6               7               8               9              10
               11              12              13              14              15              16              17              18              19              20
               21              22              23              24              25
 ................................................................................................................................................................
   1  7.457881730     11.29150335     13.57750125     14.18437685     14.23915727     14.17740281     14.09475923     14.02614916     13.97594238     13.94047516    
      13.91568761     13.89841707     13.88637875     13.87792847     13.87175394     13.86584154     13.85731782     13.84382350     13.82168100     13.78549734    
      13.72808298     13.64067995     13.51332378     13.33208159     13.02938623    
1
  CONCENTRATION IN LAYER   6 AT END OF TIME STEP 100 IN STRESS PERIOD    1
  ---------------------------------------------------------------------------

                1               2               3               4               5               6               7               8               9              10
               11              12              13              14              15              16              17              18              19              20
               21              22              23              24              25
 ................................................................................................................................................................
   1  7.457881730     9.567757971     11.69619281     12.77460336     13.24717470     13.48129583     13.61015018     13.68917062     13.74145508     13.77726008    
      13.80207600     13.81933360     13.83132972     13.83961059     13.84514281     13.84746941     13.84421540     13.83454133     13.81520365     13.78105662    
      13.72507120     13.63864370     13.51194476     13.33114287     13.02881216    
1
  CONCENTRATION IN LAYER   7 AT END OF TIME STEP 100 IN STRESS PERIOD    1
  ---------------------------------------------------------------------------

                1               2               3               4               5               6               7               8               9              10
               11              12              13              14              15              16              17              18              19              20
               21              22              23              24              25
 ................................................................................................................................................................
   1  7.457881730     8.635211102     10.32666983     11.57550354     12.34523214     12.83193655     13.15233691     13.36923901     13.51851545     13.62203441    
      13.69402116     13.74411884     13.77897430     13.80316774     13.81979811     13.83027750     13.83169893     13.82556905     13.80898655     13.77682845    
      13.72221459     13.63671276     13.51063555     13.33025075     13.02826622    
1
  CONCENTRATION IN LAYER   8 AT END OF TIME STEP 100 IN STRESS PERIOD    1
  ---------------------------------------------------------------------------

                1               2               3               4               5               6               7               8               9              10
               11              12              13              14              15              16              17              18              19              20
               21              22              23              24              25
 ................................................................................................................................................................
   1  7.457881730     8.138404023     9.413738871     10.65800537     11.60890025     12.28840731     12.76512540     13.09752977     13.32893126     13.48999217    
      13.60210100     13.68013581     13.73443761     13.77216738     13.79823216     13.81551813     13.82149856     13.81772099     13.80360293     13.77322224    
      13.71979207     13.63507536     13.50952382     13.32949239     13.02780184    
1
  CONCENTRATION IN LAYER   9 AT END OF TIME STEP 100 IN STRESS PERIOD    1
  ---------------------------------------------------------------------------

                1               2               3               4               5               6               7               8               9              10
               11              12              13              14              15              16              17              18              19              20
               21              22              23              24              25
 ................................................................................................................................................................
   1  7.457881730     7.885486955     8.868099310     10.04720552     11.09158347     11.89839353     12.48503333     12.90037986     13.19122769     13.39405848    
      13.53531513     13.63364850     13.70207951     13.74964415     13.78256215     13.80475648     13.81424085     13.81195843     13.79963835     13.77059339    
      13.71803624     13.63388904     13.50871733     13.32894170     13.02746444    
1
  CONCENTRATION IN LAYER  10 AT END OF TIME STEP 100 IN STRESS PERIOD    1
  ---------------------------------------------------------------------------

                1               2               3               4               5               6               7               8               9              10
               11              12              13              14              15              16              17              18              19              20
               21              22              23              24              25
 ................................................................................................................................................................
   1  7.457881730     7.779270013     8.615336324     9.744069171     10.82554541     11.69496554     12.33818461     12.79681918     13.11884593     13.34362349    
      13.50020305     13.60920836     13.68506776     13.73780293     13.77432374     13.79908948     13.81046363     13.80891604     13.79753831     13.76920797    
      13.71711447     13.63326655     13.50829377     13.32865229     13.02728707    

 CONCENTRATION WILL BE SAVED ON UNIT **** AT END OF TIME STEP  100, STRESS PERIOD    1


  MASS BUDGET FOR ENTIRE MODEL AT END OF TIME STEP  100, STRESS PERIOD   1
  ---------------------------------------------------------------------------------------------------

     CUMULATIVE MASS      M       RATES FOR THIS TIME STEP      M/T          PACKAGE NAME    
     ------------------                 ------------------------                     ----------------

           IN:                                      IN:
           ---                                      ---
     STORAGE-AQUEOUS =       4.6034E-02       STORAGE-AQUEOUS =       1.0583E-07     MST                              
                 CHD =           0.0000                   CHD =           0.0000     SSM_CHD                          
                 CHD =        6231.5186                   CHD =           3.1158     SSM_CHDTAIL                      
                 CNC =        2021.8202                   CNC =           1.0068     CNC                              

            TOTAL IN =        8253.3849              TOTAL IN =           4.1225

          OUT:                                     OUT:
          ----                                     ----
     STORAGE-AQUEOUS =        2211.8592       STORAGE-AQUEOUS =           0.1729     MST                              
                 CHD =        3614.7335                   CHD =           2.7144     SSM_CHD                          
                 CHD =           0.0000                   CHD =           0.0000     SSM_CHDTAIL                      
                 CNC =        2426.7922                   CNC =           1.2353     CNC                              

           TOTAL OUT =        8253.3849             TOTAL OUT =           4.1225

            IN - OUT =      -6.3832E-07              IN - OUT =      -2.8937E-10

 PERCENT DISCREPANCY =          -0.00     PERCENT DISCREPANCY =          -0.00




         TIME SUMMARY AT END OF TIME STEP  100 IN STRESS PERIOD    1
                    SECONDS     MINUTES      HOURS       DAYS        YEARS
                    -----------------------------------------------------------
   TIME STEP LENGTH 1.72800E+06  28800.      480.00      20.000     5.47570E-02
 STRESS PERIOD TIME 1.72800E+08 2.88000E+06  48000.      2000.0      5.4757    
         TOTAL TIME 1.72800E+08 2.88000E+06  48000.      2000.0      5.4757    


end timestep

