                                   MODFLOW 6
                U.S. GEOLOGICAL SURVEY MODULAR HYDROLOGIC MODEL
                       GROUNDWATER TRANSPORT MODEL (GWT)
                VERSION 6.5.0.dev0+prt (preliminary) 10/07/2023
                               ***DEVELOP MODE***

   MODFLOW 6 compiled Oct 07 2023 02:19:02 with Intel(R) Fortran Intel(R) 64
   Compiler Classic for applications running on Intel(R) 64, Version 2021.7.0
                             Build 20220726_000000

This software is preliminary or provisional and is subject to 
revision. It is being provided to meet the need for timely best 
science. The software has not received final approval by the U.S. 
Geological Survey (USGS). No warranty, expressed or implied, is made 
by the USGS or the U.S. Government as to the functionality of the 
software and related material nor shall the fact of release 
constitute any such warranty. The software is provided on the 
condition that neither the USGS nor the U.S. Government shall be held 
liable for any damages resulting from the authorized or unauthorized 
use of the software.


As a work of the United States Government, this USGS product is 
in the public domain within the United States. You can copy, 
modify, distribute, and perform the work, even for commercial 
purposes, all without asking permission. Additionally, USGS 
waives copyright and related rights in the work worldwide 
through CC0 1.0 Universal Public Domain Dedication 
(https://creativecommons.org/publicdomain/zero/1.0/).

The following GNU Lesser General Public License (LGPL) libraries
are used in this USGS product:

    SPARSKIT version 2.0
      ilut, luson, and qsplit 
      (https://www-users.cse.umn.edu/~saad/software/SPARSKIT/)

    RCM - Reverse Cuthill McKee Ordering
      (https://people.math.sc.edu/Burkardt/f_src/rcm/rcm.html)

    BLAS - Basic Linear Algebra Subprograms Level 1
      (https://people.math.sc.edu/Burkardt/f_src/blas1_d/blas1_d.html)

    SPARSEKIT - Sparse Matrix Utility Package
      amux, dperm, dvperm, rperm, and cperm
      (https://people.sc.fsu.edu/~jburkardt/f77_src/sparsekit/sparsekit.html)

The following BSD-3 License libraries are used in this USGS product:

    Modern Fortran DAG Library
      Copyright (c) 2018, Jacob Williams
      All rights reserved.
      (https://github.com/jacobwilliams/daglib)

MODFLOW 6 compiler options: /Isrc\libmf6core.a.p /Isrc /I..\src
/Isrc\libmf6_external.a.p /MTd /nologo /warn:general /warn:truncated_source
/stand:f08 /Zi /traceback /O2 /fpe:0 /heap-arrays:0 /traceback /fpp
/Qdiag-disable:7416 /Qdiag-disable:7025 /Qdiag-disable:5268
/Fdsrc\libmf6core.a.p\Utilities_compilerversion.F90.pdb
/module:src\libmf6core.a.p
/Fosrc/libmf6core.a.p/Utilities_compilerversion.F90.obj /c

System command used to initiate simulation:
c:\Users\portega\anaconda3\envs\mf6rtm\python.exe -m ipykernel_launcher --f=c:\Users\portega\AppData\Roaming\jupyter\runtime\kernel-v2-17404NqyrdJ157y2B.json

MODFLOW was compiled using uniform precision.

Real Variables
  KIND: 8
  TINY (smallest non-zero value):    2.225074-308
  HUGE (largest value):    1.797693+308
  PRECISION: 15
  SIZE IN BITS: 64

Integer Variables
  KIND: 4
  HUGE (largest value): 2147483647
  SIZE IN BITS: 32

Long Integer Variables
  KIND: 8
  HUGE (largest value): 9223372036854775807
  SIZE IN BITS: 64

Logical Variables
  KIND: 4
  SIZE IN BITS: 32
 
 NAMEFILE OPTIONS:
 END NAMEFILE OPTIONS:

 DIS -- STRUCTURED GRID DISCRETIZATION PACKAGE, VERSION 2 : 3/27/2014 - INPUT READ FROM MEMPATH: __INPUT__/SI/DIS                                  


 DSP-- DISPERSION PACKAGE, VERSION 1, 1/24/2018 INPUT READ FROM MEMPATH: __INPUT__/SI/DSP                                  


 Setting Discretization Options
    Model length unit [0=UND, 1=FEET, 2=METERS, 3=CENTIMETERS] set as 2
 End Setting Discretization Options

 Setting Discretization Dimensions
    NLAY = 10
    NROW = 1
    NCOL = 25
 End Setting Discretization Dimensions

 Setting Discretization Griddata
    DELR set from input file
    DELC set from input file
    TOP set from input file
    BOTM set from input file
    IDOMAIN set from input file
 End Setting Discretization Griddata


 FMI -- FLOW MODEL INTERFACE,' VERSION 2, 8/17/2023
  FLOWS PROVIDED BY A GWF MODEL IN THIS SIMULATION

 ADV-- ADVECTION PACKAGE, VERSION 1, 8/25/2017 INPUT READ FROM UNIT 1868


 # File generated by Flopy version 3.5.0.dev0 on 07/12/2024 at 11:54:48.
 PROCESSING ADVECTION OPTIONS
    ADVECTION WEIGHTING SCHEME HAS BEEN SET TO: TVD
 END OF ADVECTION OPTIONS
 Setting DSP Options
    XT3D formulation [0=INACTIVE, 1=ACTIVE, 3=ACTIVE RHS] set to: 0
 End Setting DSP Options

 Setting DSP Griddata
    ALH set from input file
    ATH1 set from input file
    ATV set from input file
 End Setting DSP Griddata


 CNC   -- CNC PACKAGE, VERSION 8, 2/22/2014 INPUT READ FROM UNIT 1902
 # File generated by Flopy version 3.5.0.dev0 on 07/12/2024 at 11:54:48.

 PROCESSING CNC OPTIONS
    CNC FLOWS WILL BE PRINTED TO LISTING FILE.
    FLOWS WILL BE SAVED TO BUDGET FILE SPECIFIED IN OUTPUT CONTROL
 END OF CNC OPTIONS

 PROCESSING CNC DIMENSIONS
    MAXBOUND =       7
 END OF CNC DIMENSIONS

 IC -- INITIAL CONDITIONS PACKAGE, VERSION 8, 3/28/2015 INPUT READ FROM UNIT 1866
 # File generated by Flopy version 3.5.0.dev0 on 07/12/2024 at 11:54:48.
 PROCESSING GRIDDATA

 OPENED Si.ic_strt_layer1.txt
 FILE TYPE:OPEN/CLOSE   UNIT 2120   STATUS:OLD                 
 FORMAT:FORMATTED              ACCESS:SEQUENTIAL          
 ACTION:READ                


 OPENED Si.ic_strt_layer2.txt
 FILE TYPE:OPEN/CLOSE   UNIT 2121   STATUS:OLD                 
 FORMAT:FORMATTED              ACCESS:SEQUENTIAL          
 ACTION:READ                


 OPENED Si.ic_strt_layer3.txt
 FILE TYPE:OPEN/CLOSE   UNIT 2122   STATUS:OLD                 
 FORMAT:FORMATTED              ACCESS:SEQUENTIAL          
 ACTION:READ                


 OPENED Si.ic_strt_layer4.txt
 FILE TYPE:OPEN/CLOSE   UNIT 2123   STATUS:OLD                 
 FORMAT:FORMATTED              ACCESS:SEQUENTIAL          
 ACTION:READ                


 OPENED Si.ic_strt_layer5.txt
 FILE TYPE:OPEN/CLOSE   UNIT 2124   STATUS:OLD                 
 FORMAT:FORMATTED              ACCESS:SEQUENTIAL          
 ACTION:READ                


 OPENED Si.ic_strt_layer6.txt
 FILE TYPE:OPEN/CLOSE   UNIT 2125   STATUS:OLD                 
 FORMAT:FORMATTED              ACCESS:SEQUENTIAL          
 ACTION:READ                


 OPENED Si.ic_strt_layer7.txt
 FILE TYPE:OPEN/CLOSE   UNIT 2126   STATUS:OLD                 
 FORMAT:FORMATTED              ACCESS:SEQUENTIAL          
 ACTION:READ                


 OPENED Si.ic_strt_layer8.txt
 FILE TYPE:OPEN/CLOSE   UNIT 2127   STATUS:OLD                 
 FORMAT:FORMATTED              ACCESS:SEQUENTIAL          
 ACTION:READ                


 OPENED Si.ic_strt_layer9.txt
 FILE TYPE:OPEN/CLOSE   UNIT 2128   STATUS:OLD                 
 FORMAT:FORMATTED              ACCESS:SEQUENTIAL          
 ACTION:READ                


 OPENED Si.ic_strt_layer10.txt
 FILE TYPE:OPEN/CLOSE   UNIT 2129   STATUS:OLD                 
 FORMAT:FORMATTED              ACCESS:SEQUENTIAL          
 ACTION:READ                

 END PROCESSING GRIDDATA

 MST -- MOBILE STORAGE AND TRANSFER PACKAGE, VERSION 1, 7/29/2020 INPUT READ FROM UNIT 1867


 # File generated by Flopy version 3.5.0.dev0 on 07/12/2024 at 11:54:48.
 PROCESSING MOBILE STORAGE AND TRANSFER OPTIONS
 END OF MOBILE STORAGE AND TRANSFER OPTIONS
 PROCESSING GRIDDATA

 OPENED Si.mst_porosity.txt
 FILE TYPE:OPEN/CLOSE   UNIT 2130   STATUS:OLD                 
 FORMAT:FORMATTED              ACCESS:SEQUENTIAL          
 ACTION:READ                

 END PROCESSING GRIDDATA

 SSM -- SOURCE-SINK MIXING PACKAGE, VERSION 1, 8/25/2017 INPUT READ FROM UNIT 1900


 # File generated by Flopy version 3.5.0.dev0 on 07/12/2024 at 11:54:48.
 PROCESSING SSM OPTIONS
    SSM FLOW INFORMATION WILL BE PRINTED TO LISTING FILE WHENEVER ICBCFL IS NOT ZERO.
    CELL-BY-CELL FLOW INFORMATION WILL BE SAVED TO BINARY FILE WHENEVER ICBCFL IS NOT ZERO.
 END OF SSM OPTIONS

 OPENED Si.ssm_sources.txt
 FILE TYPE:OPEN/CLOSE   UNIT 2131   STATUS:OLD                 
 FORMAT:FORMATTED              ACCESS:SEQUENTIAL          
 ACTION:READ                

 PROCESSING SOURCES
 AUX SOURCE DETECTED.
    USING AUX COLUMN 14 IN PACKAGE CHD
 END PROCESSING SOURCES
 OPTIONAL FILEINPUT BLOCK NOT FOUND.  CONTINUING.
      THE LAST TIME STEP WILL BE PRINTED
      THE LAST TIME STEP WILL BE PRINTED
 # File generated by Flopy version 3.5.0.dev0 on 07/12/2024 at 11:54:48.

 PROCESSING OC OPTIONS

    BUDGET INFORMATION WILL BE WRITTEN TO:
      UNIT NUMBER: 2132
      FILE NAME: Si.cbb

 OPENED Si.cbb
 FILE TYPE:DATA(BINARY)   UNIT 2132   STATUS:REPLACE             
 FORMAT:UNFORMATTED            ACCESS:STREAM              
 ACTION:READWRITE           

    CONCENTRATION INFORMATION WILL BE WRITTEN TO:
      UNIT NUMBER: 2133
      FILE NAME: Si.ucn

 OPENED Si.ucn
 FILE TYPE:DATA(BINARY)   UNIT 2133   STATUS:REPLACE             
 FORMAT:UNFORMATTED            ACCESS:STREAM              
 ACTION:READWRITE           

 END OF OC OPTIONS

start timestep kper="1" kstp="1" mode="normal"


 BEGIN READING OUTPUT CONTROL FOR STRESS PERIOD 1
      ALL TIME STEPS WILL BE SAVED
      ALL TIME STEPS WILL BE SAVED
      ALL TIME STEPS WILL BE PRINTED
      ALL TIME STEPS WILL BE PRINTED

 END READING OUTPUT CONTROL FOR STRESS PERIOD 1

 OPENED Si.cnc_stress_period_data_1.txt
 FILE TYPE:OPEN/CLOSE   UNIT 2147   STATUS:OLD                 
 FORMAT:FORMATTED              ACCESS:SEQUENTIAL          
 ACTION:READ                

 UBDSV06 SAVING  SOURCE-SINK MIX IN MODEL SI               PACKAGE SI              CONNECTED TO MODEL SI               PACKAGE SSM              ON UNIT   2132 AT TIME STEP      1, STRESS PERIOD      1
 UBDSV06 SAVING              CNC IN MODEL SI               PACKAGE SI              CONNECTED TO MODEL SI               PACKAGE CNC              ON UNIT   2132 AT TIME STEP      1, STRESS PERIOD      1

 SSM PACKAGE (SSM) FLOW RATES   PERIOD      1   STEP        1
 ------------------------------------------------------------------------------------------------
   NUMBER   CELLID                   BOUND Q        SSM CONC          RATE         PACKAGE NAME  
 ------------------------------------------------------------------------------------------------
     1      (1,1,1)               2.08333361E-02  2.0738495       4.32052030E-02       CHD       
     2      (2,1,1)               2.08333361E-02  2.0738495       4.32052031E-02       CHD       
     3      (3,1,1)               2.08333361E-02  2.0738495       4.32052031E-02       CHD       
     4      (4,1,1)               0.0000000       0.0000000       0.0000000            CHD       
     5      (5,1,1)               0.0000000       0.0000000       0.0000000            CHD       
     6      (6,1,1)               0.0000000       0.0000000       0.0000000            CHD       
     7      (7,1,1)               0.0000000       0.0000000       0.0000000            CHD       
     8      (8,1,1)               0.0000000       0.0000000       0.0000000            CHD       
     9      (9,1,1)               0.0000000       0.0000000       0.0000000            CHD       
     10     (10,1,1)              0.0000000       0.0000000       0.0000000            CHD       
     11     (1,1,25)             -2.08333402E-02  1.9258310      -4.01214918E-02       CHD       
     12     (2,1,25)             -2.08333402E-02  1.9258310      -4.01214918E-02       CHD       
     13     (3,1,25)             -2.08333402E-02  1.9258310      -4.01214918E-02       CHD       
     14     (4,1,25)             -2.08333403E-02  1.9258310      -4.01214918E-02       CHD       
     15     (5,1,25)             -2.08333403E-02  1.9258310      -4.01214919E-02       CHD       
     16     (6,1,25)             -2.08333403E-02  1.9258310      -4.01214919E-02       CHD       
     17     (7,1,25)             -2.08333403E-02  1.9258310      -4.01214919E-02       CHD       
     18     (8,1,25)             -2.08333403E-02  1.9258310      -4.01214919E-02       CHD       
     19     (9,1,25)             -2.08333403E-02  1.9258310      -4.01214919E-02       CHD       
     20     (10,1,25)            -2.08333403E-02  1.9258310      -4.01214919E-02       CHD       
 ------------------------------------------------------------------------------------------------




 CNC PACKAGE (CNC) FLOW RATES   PERIOD      1   STEP        1
 -----------------------------------------------
   NUMBER   CELLID                    RATE      
 -----------------------------------------------
     1      (4,1,1)               3.92248612E-02
     2      (5,1,1)               4.03830860E-02
     3      (6,1,1)               4.03842815E-02
     4      (7,1,1)               4.03847747E-02
     5      (8,1,1)               4.03849775E-02
     6      (9,1,1)               4.03850593E-02
     7      (10,1,1)              4.03850881E-02
 -----------------------------------------------



1
  CONCENTRATION IN LAYER   1 AT END OF TIME STEP   1 IN STRESS PERIOD    1
  ---------------------------------------------------------------------------

                1               2               3               4               5               6               7               8               9              10
               11              12              13              14              15              16              17              18              19              20
               21              22              23              24              25
 ................................................................................................................................................................
   1  1.919168738     1.924576260     1.925710217     1.925820232     1.925829941     1.925830860     1.925831031     1.925830979     1.925830972     1.925830977    
      1.925830977     1.925830972     1.925830964     1.925830962     1.925830963     1.925830964     1.925830963     1.925830962     1.925830961     1.925830961    
      1.925830963     1.925830964     1.925830966     1.925830968     1.925830969    
1
  CONCENTRATION IN LAYER   2 AT END OF TIME STEP   1 IN STRESS PERIOD    1
  ---------------------------------------------------------------------------

                1               2               3               4               5               6               7               8               9              10
               11              12              13              14              15              16              17              18              19              20
               21              22              23              24              25
 ................................................................................................................................................................
   1  1.919741535     1.924728278     1.925723426     1.925821151     1.925829988     1.925830877     1.925831046     1.925830976     1.925830973     1.925830982    
      1.925830982     1.925830973     1.925830961     1.925830957     1.925830959     1.925830961     1.925830960     1.925830957     1.925830956     1.925830842    
      1.925830959     1.925830847     1.925830964     1.925830968     1.925830969    
1
  CONCENTRATION IN LAYER   3 AT END OF TIME STEP   1 IN STRESS PERIOD    1
  ---------------------------------------------------------------------------

                1               2               3               4               5               6               7               8               9              10
               11              12              13              14              15              16              17              18              19              20
               21              22              23              24              25
 ................................................................................................................................................................
   1  1.921395155     1.925052612     1.925746393     1.925822704     1.925830073     1.925830910     1.925831063     1.925830972     1.925830974     1.925830991    
      1.925830991     1.925830974     1.925830955     1.925830949     1.925830952     1.925830956     1.925830954     1.925830950     1.925830948     1.925830950    
      1.925830953     1.925830958     1.925830962     1.925830967     1.925830969    
1
  CONCENTRATION IN LAYER   4 AT END OF TIME STEP   1 IN STRESS PERIOD    1
  ---------------------------------------------------------------------------

                1               2               3               4               5               6               7               8               9              10
               11              12              13              14              15              16              17              18              19              20
               21              22              23              24              25
 ................................................................................................................................................................
   1  1.934263440     1.925514829     1.925769263     1.925824419     1.925830182     1.925830952     1.925831070     1.925830967     1.925830975     1.925831000    
      1.925830999     1.925830976     1.925830950     1.925830942     1.925830948     1.925830952     1.925830950     1.925830945     1.925830942     1.925830944    
      1.925830949     1.925830955     1.925830960     1.925830966     1.925830968    
1
  CONCENTRATION IN LAYER   5 AT END OF TIME STEP   1 IN STRESS PERIOD    1
  ---------------------------------------------------------------------------

                1               2               3               4               5               6               7               8               9              10
               11              12              13              14              15              16              17              18              19              20
               21              22              23              24              25
 ................................................................................................................................................................
   1  1.934263440     1.925703138     1.925794472     1.925826292     1.925830312     1.925830989     1.925831066     1.925830963     1.925830976     1.925831005    
      1.925831004     1.925830977     1.925830947     1.925830939     1.925830946     1.925830951     1.925830948     1.925830942     1.925830938     1.925830940    
      1.925830946     1.925830838     1.925830958     1.925830966     1.925830968    
1
  CONCENTRATION IN LAYER   6 AT END OF TIME STEP   1 IN STRESS PERIOD    1
  ---------------------------------------------------------------------------

                1               2               3               4               5               6               7               8               9              10
               11              12              13              14              15              16              17              18              19              20
               21              22              23              24              25
 ................................................................................................................................................................
   1  1.934263440     1.925779291     1.925811474     1.925827845     1.925830447     1.925831015     1.925831053     1.925830960     1.925830976     1.925831007    
      1.925831006     1.925830977     1.925830947     1.925830939     1.925830945     1.925830951     1.925830948     1.925830941     1.925830937     1.925830940    
      1.925830945     1.925830952     1.925830958     1.925830966     1.925830968    
1
  CONCENTRATION IN LAYER   7 AT END OF TIME STEP   1 IN STRESS PERIOD    1
  ---------------------------------------------------------------------------

                1               2               3               4               5               6               7               8               9              10
               11              12              13              14              15              16              17              18              19              20
               21              22              23              24              25
 ................................................................................................................................................................
   1  1.934263440     1.925810797     1.925820417     1.925828919     1.925830573     1.925831026     1.925831037     1.925830958     1.925830975     1.925831006    
      1.925831005     1.925830977     1.925830948     1.925830940     1.925830947     1.925830952     1.925830949     1.925830943     1.925830939     1.925830941    
      1.925830946     1.925830953     1.925830958     1.925830965     1.925830968    
1
  CONCENTRATION IN LAYER   8 AT END OF TIME STEP   1 IN STRESS PERIOD    1
  ---------------------------------------------------------------------------

                1               2               3               4               5               6               7               8               9              10
               11              12              13              14              15              16              17              18              19              20
               21              22              23              24              25
 ................................................................................................................................................................
   1  1.934263440     1.925823196     1.925825384     1.925829684     1.925830677     1.925831024     1.925831021     1.925830958     1.925830975     1.925831002    
      1.925831001     1.925830977     1.925830950     1.925830943     1.925830949     1.925830954     1.925830837     1.925830945     1.925830941     1.925830943    
      1.925830948     1.925830954     1.925830959     1.925830966     1.925830968    
1
  CONCENTRATION IN LAYER   9 AT END OF TIME STEP   1 IN STRESS PERIOD    1
  ---------------------------------------------------------------------------

                1               2               3               4               5               6               7               8               9              10
               11              12              13              14              15              16              17              18              19              20
               21              22              23              24              25
 ................................................................................................................................................................
   1  1.934263440     1.925827814     1.925827998     1.925830174     1.925830757     1.925831011     1.925831009     1.925830961     1.925830974     1.925830996    
      1.925830995     1.925830975     1.925830954     1.925830947     1.925830952     1.925830956     1.925830954     1.925830949     1.925830946     1.925830948    
      1.925830952     1.925830956     1.925830960     1.925830966     1.925830968    
1
  CONCENTRATION IN LAYER  10 AT END OF TIME STEP   1 IN STRESS PERIOD    1
  ---------------------------------------------------------------------------

                1               2               3               4               5               6               7               8               9              10
               11              12              13              14              15              16              17              18              19              20
               21              22              23              24              25
 ................................................................................................................................................................
   1  1.934263440     1.925829211     1.925829084     1.925830414     1.925830795     1.925830995     1.925831004     1.925830966     1.925830972     1.925830984    
      1.925830984     1.925830973     1.925830960     1.925830956     1.925830958     1.925830961     1.925830960     1.925830957     1.925830955     1.925830956    
      1.925830958     1.925830961     1.925830964     1.925830967     1.925830968    

 CONCENTRATION WILL BE SAVED ON UNIT 2133 AT END OF TIME STEP    1, STRESS PERIOD    1


  MASS BUDGET FOR ENTIRE MODEL AT END OF TIME STEP    1, STRESS PERIOD   1
  ---------------------------------------------------------------------------------------------------

     CUMULATIVE MASS      M       RATES FOR THIS TIME STEP      M/T          PACKAGE NAME    
     ------------------                 ------------------------                     ----------------

           IN:                                      IN:
           ---                                      ---
     STORAGE-AQUEOUS =       2.7429E-06       STORAGE-AQUEOUS =       2.7429E-07     MST                              
                 CHD =           1.2962                   CHD =           0.1296     SSM_CHD                          
                 CNC =           2.8269                   CNC =           0.2827     CNC                              

            TOTAL IN =           4.1230              TOTAL IN =           0.4123

          OUT:                                     OUT:
          ----                                     ----
     STORAGE-AQUEOUS =       9.9330E-02       STORAGE-AQUEOUS =       9.9330E-03     MST                              
                 CHD =           4.0121                   CHD =           0.4012     SSM_CHD                          
                 CNC =       1.1553E-02                   CNC =       1.1553E-03     CNC                              

           TOTAL OUT =           4.1230             TOTAL OUT =           0.4123

            IN - OUT =       2.4615E-08              IN - OUT =       2.4615E-09

 PERCENT DISCREPANCY =           0.00     PERCENT DISCREPANCY =           0.00




         TIME SUMMARY AT END OF TIME STEP    1 IN STRESS PERIOD    1
                    SECONDS     MINUTES      HOURS       DAYS        YEARS
                    -----------------------------------------------------------
   TIME STEP LENGTH 8.64000E+05  14400.      240.00      10.000     2.73785E-02
 STRESS PERIOD TIME 8.64000E+05  14400.      240.00      10.000     2.73785E-02
         TOTAL TIME 8.64000E+05  14400.      240.00      10.000     2.73785E-02


end timestep


start timestep kper="1" kstp="2" mode="normal"

 UBDSV06 SAVING  SOURCE-SINK MIX IN MODEL SI               PACKAGE SI              CONNECTED TO MODEL SI               PACKAGE SSM              ON UNIT   2132 AT TIME STEP      2, STRESS PERIOD      1
 UBDSV06 SAVING              CNC IN MODEL SI               PACKAGE SI              CONNECTED TO MODEL SI               PACKAGE CNC              ON UNIT   2132 AT TIME STEP      2, STRESS PERIOD      1

 SSM PACKAGE (SSM) FLOW RATES   PERIOD      1   STEP        2
 ------------------------------------------------------------------------------------------------
   NUMBER   CELLID                   BOUND Q        SSM CONC          RATE         PACKAGE NAME  
 ------------------------------------------------------------------------------------------------
     1      (1,1,1)               2.08333319E-02  2.0738495       4.32051943E-02       CHD       
     2      (2,1,1)               2.08333319E-02  2.0738495       4.32051943E-02       CHD       
     3      (3,1,1)               2.08333319E-02  2.0738495       4.32051943E-02       CHD       
     4      (4,1,1)               0.0000000       0.0000000       0.0000000            CHD       
     5      (5,1,1)               0.0000000       0.0000000       0.0000000            CHD       
     6      (6,1,1)               0.0000000       0.0000000       0.0000000            CHD       
     7      (7,1,1)               0.0000000       0.0000000       0.0000000            CHD       
     8      (8,1,1)               0.0000000       0.0000000       0.0000000            CHD       
     9      (9,1,1)               0.0000000       0.0000000       0.0000000            CHD       
     10     (10,1,1)              0.0000000       0.0000000       0.0000000            CHD       
     11     (1,1,25)             -2.08333370E-02  1.9258310      -4.01214855E-02       CHD       
     12     (2,1,25)             -2.08333370E-02  1.9258310      -4.01214855E-02       CHD       
     13     (3,1,25)             -2.08333370E-02  1.9258310      -4.01214856E-02       CHD       
     14     (4,1,25)             -2.08333370E-02  1.9258310      -4.01214856E-02       CHD       
     15     (5,1,25)             -2.08333370E-02  1.9258310      -4.01214856E-02       CHD       
     16     (6,1,25)             -2.08333370E-02  1.9258310      -4.01214856E-02       CHD       
     17     (7,1,25)             -2.08333370E-02  1.9258310      -4.01214856E-02       CHD       
     18     (8,1,25)             -2.08333370E-02  1.9258310      -4.01214856E-02       CHD       
     19     (9,1,25)             -2.08333370E-02  1.9258310      -4.01214856E-02       CHD       
     20     (10,1,25)            -2.08333370E-02  1.9258310      -4.01214856E-02       CHD       
 ------------------------------------------------------------------------------------------------




 CNC PACKAGE (CNC) FLOW RATES   PERIOD      1   STEP        2
 -----------------------------------------------
   NUMBER   CELLID                    RATE      
 -----------------------------------------------
     1      (4,1,1)               3.97499500E-02
     2      (5,1,1)               4.03864870E-02
     3      (6,1,1)               4.03859058E-02
     4      (7,1,1)               4.03855308E-02
     5      (8,1,1)               4.03853247E-02
     6      (9,1,1)               4.03852237E-02
     7      (10,1,1)              4.03851837E-02
 -----------------------------------------------



1
  CONCENTRATION IN LAYER   1 AT END OF TIME STEP   2 IN STRESS PERIOD    1
  ---------------------------------------------------------------------------

                1               2               3               4               5               6               7               8               9              10
               11              12              13              14              15              16              17              18              19              20
               21              22              23              24              25
 ................................................................................................................................................................
   1  1.915021932     1.922898602     1.925465714     1.925789855     1.925826258     1.925830437     1.925830984     1.925830992     1.925830984     1.925830976    
      1.925830974     1.925830969     1.925830964     1.925830960     1.925830958     1.925830957     1.925830955     1.925830954     1.925830954     1.925830955    
      1.925830957     1.925830960     1.925830963     1.925830967     1.925830968    
1
  CONCENTRATION IN LAYER   2 AT END OF TIME STEP   2 IN STRESS PERIOD    1
  ---------------------------------------------------------------------------

                1               2               3               4               5               6               7               8               9              10
               11              12              13              14              15              16              17              18              19              20
               21              22              23              24              25
 ................................................................................................................................................................
   1  1.916159493     1.923267178     1.925503272     1.925792932     1.925826512     1.925830472     1.925831001     1.925830989     1.925830989     1.925830977    
      1.925830971     1.925830967     1.925830962     1.925830958     1.925830955     1.925830952     1.925830950     1.925830949     1.925830949     1.925830951    
      1.925830954     1.925830957     1.925830961     1.925830966     1.925830968    
1
  CONCENTRATION IN LAYER   3 AT END OF TIME STEP   2 IN STRESS PERIOD    1
  ---------------------------------------------------------------------------

                1               2               3               4               5               6               7               8               9              10
               11              12              13              14              15              16              17              18              19              20
               21              22              23              24              25
 ................................................................................................................................................................
   1  1.919093375     1.924005331     1.925566182     1.925798038     1.925826962     1.925830541     1.925831021     1.925830988     1.925830995     1.925830977    
      1.925830967     1.925830964     1.925830961     1.925830956     1.925830950     1.925830945     1.925830942     1.925830941     1.925830942     1.925830945    
      1.925830948     1.925830953     1.925830958     1.925830965     1.925830968    
1
  CONCENTRATION IN LAYER   4 AT END OF TIME STEP   2 IN STRESS PERIOD    1
  ---------------------------------------------------------------------------

                1               2               3               4               5               6               7               8               9              10
               11              12              13              14              15              16              17              18              19              20
               21              22              23              24              25
 ................................................................................................................................................................
   1  1.934263440     1.924979071     1.925625478     1.925803616     1.925827533     1.925830628     1.925831022     1.925831000     1.925831000     1.925830977    
      1.925830965     1.925830962     1.925830959     1.925830954     1.925830946     1.925830939     1.925830935     1.925830934     1.925830936     1.925830939    
      1.925830943     1.925830949     1.925830955     1.925830964     1.925830968    
1
  CONCENTRATION IN LAYER   5 AT END OF TIME STEP   2 IN STRESS PERIOD    1
  ---------------------------------------------------------------------------

                1               2               3               4               5               6               7               8               9              10
               11              12              13              14              15              16              17              18              19              20
               21              22              23              24              25
 ................................................................................................................................................................
   1  1.934263440     1.925442165     1.925699399     1.925810263     1.925828176     1.925830717     1.925831017     1.925831009     1.925831003     1.925830977    
      1.925830964     1.925830961     1.925830959     1.925830953     1.925830944     1.925830935     1.925830931     1.925830930     1.925830932     1.925830936    
      1.925830940     1.925830946     1.925830953     1.925830963     1.925830968    
1
  CONCENTRATION IN LAYER   6 AT END OF TIME STEP   2 IN STRESS PERIOD    1
  ---------------------------------------------------------------------------

                1               2               3               4               5               6               7               8               9              10
               11              12              13              14              15              16              17              18              19              20
               21              22              23              24              25
 ................................................................................................................................................................
   1  1.934263440     1.925656700     1.925753839     1.925816392     1.925828819     1.925830794     1.925831011     1.925831012     1.925831003     1.925830978    
      1.925830964     1.925830962     1.925830959     1.925830953     1.925830943     1.925830934     1.925830930     1.925830929     1.925830931     1.925830934    
      1.925830939     1.925830945     1.925830952     1.925830963     1.925830968    
1
  CONCENTRATION IN LAYER   7 AT END OF TIME STEP   2 IN STRESS PERIOD    1
  ---------------------------------------------------------------------------

                1               2               3               4               5               6               7               8               9              10
               11              12              13              14              15              16              17              18              19              20
               21              22              23              24              25
 ................................................................................................................................................................
   1  1.934263440     1.925755126     1.925786660     1.925821450     1.925829388     1.925830852     1.925831006     1.925831010     1.925831002     1.925830978    
      1.925830965     1.925830962     1.925830960     1.925830954     1.925830944     1.925830936     1.925830931     1.925830931     1.925830932     1.925830935    
      1.925830940     1.925830946     1.925830952     1.925830963     1.925830968    
1
  CONCENTRATION IN LAYER   8 AT END OF TIME STEP   2 IN STRESS PERIOD    1
  ---------------------------------------------------------------------------

                1               2               3               4               5               6               7               8               9              10
               11              12              13              14              15              16              17              18              19              20
               21              22              23              24              25
 ................................................................................................................................................................
   1  1.934263440     1.925798510     1.925805803     1.925824926     1.925829832     1.925830889     1.925831004     1.925831006     1.925830998     1.925830977    
      1.925830965     1.925830963     1.925830960     1.925830955     1.925830946     1.925830939     1.925830934     1.925830934     1.925830935     1.925830938    
      1.925830942     1.925830948     1.925830954     1.925830963     1.925830968    
1
  CONCENTRATION IN LAYER   9 AT END OF TIME STEP   2 IN STRESS PERIOD    1
  ---------------------------------------------------------------------------

                1               2               3               4               5               6               7               8               9              10
               11              12              13              14              15              16              17              18              19              20
               21              22              23              24              25
 ................................................................................................................................................................
   1  1.934263440     1.925816509     1.925816480     1.925826934     1.925830126     1.925830906     1.925831006     1.925830998     1.925830992     1.925830977    
      1.925830967     1.925830965     1.925830961     1.925830956     1.925830949     1.925830943     1.925830940     1.925830939     1.925830940     1.925830942    
      1.925830946     1.925830951     1.925830956     1.925830964     1.925830968    
1
  CONCENTRATION IN LAYER  10 AT END OF TIME STEP   2 IN STRESS PERIOD    1
  ---------------------------------------------------------------------------

                1               2               3               4               5               6               7               8               9              10
               11              12              13              14              15              16              17              18              19              20
               21              22              23              24              25
 ................................................................................................................................................................
   1  1.934263440     1.925822897     1.925821255     1.925827797     1.925830269     1.925830910     1.925831004     1.925830989     1.925830984     1.925830981    
      1.925830974     1.925830968     1.925830962     1.925830957     1.925830953     1.925830951     1.925830948     1.925830946     1.925830946     1.925830948    
      1.925830951     1.925830955     1.925830959     1.925830965     1.925830968    

 CONCENTRATION WILL BE SAVED ON UNIT 2133 AT END OF TIME STEP    2, STRESS PERIOD    1


  MASS BUDGET FOR ENTIRE MODEL AT END OF TIME STEP    2, STRESS PERIOD   1
  ---------------------------------------------------------------------------------------------------

     CUMULATIVE MASS      M       RATES FOR THIS TIME STEP      M/T          PACKAGE NAME    
     ------------------                 ------------------------                     ----------------

           IN:                                      IN:
           ---                                      ---
     STORAGE-AQUEOUS =       5.5092E-06       STORAGE-AQUEOUS =       2.7662E-07     MST                              
                 CHD =           2.5923                   CHD =           0.1296     SSM_CHD                          
                 CNC =           5.6539                   CNC =           0.2827     CNC                              

            TOTAL IN =           8.2462              TOTAL IN =           0.4123

          OUT:                                     OUT:
          ----                                     ----
     STORAGE-AQUEOUS =           0.2040       STORAGE-AQUEOUS =       1.0465E-02     MST                              
                 CHD =           8.0243                   CHD =           0.4012     SSM_CHD                          
                 CNC =       1.7925E-02                   CNC =       6.3714E-04     CNC                              

           TOTAL OUT =           8.2462             TOTAL OUT =           0.4123

            IN - OUT =       5.0278E-08              IN - OUT =       2.5663E-09

 PERCENT DISCREPANCY =           0.00     PERCENT DISCREPANCY =           0.00




         TIME SUMMARY AT END OF TIME STEP    2 IN STRESS PERIOD    1
                    SECONDS     MINUTES      HOURS       DAYS        YEARS
                    -----------------------------------------------------------
   TIME STEP LENGTH 8.64000E+05  14400.      240.00      10.000     2.73785E-02
 STRESS PERIOD TIME 1.72800E+06  28800.      480.00      20.000     5.47570E-02
         TOTAL TIME 1.72800E+06  28800.      480.00      20.000     5.47570E-02


end timestep


start timestep kper="1" kstp="3" mode="normal"

 UBDSV06 SAVING  SOURCE-SINK MIX IN MODEL SI               PACKAGE SI              CONNECTED TO MODEL SI               PACKAGE SSM              ON UNIT   2132 AT TIME STEP      3, STRESS PERIOD      1
 UBDSV06 SAVING              CNC IN MODEL SI               PACKAGE SI              CONNECTED TO MODEL SI               PACKAGE CNC              ON UNIT   2132 AT TIME STEP      3, STRESS PERIOD      1

 SSM PACKAGE (SSM) FLOW RATES   PERIOD      1   STEP        3
 ------------------------------------------------------------------------------------------------
   NUMBER   CELLID                   BOUND Q        SSM CONC          RATE         PACKAGE NAME  
 ------------------------------------------------------------------------------------------------
     1      (1,1,1)               2.08333325E-02  2.0738495       4.32051956E-02       CHD       
     2      (2,1,1)               2.08333325E-02  2.0738495       4.32051956E-02       CHD       
     3      (3,1,1)               2.08333325E-02  2.0738495       4.32051956E-02       CHD       
     4      (4,1,1)               0.0000000       0.0000000       0.0000000            CHD       
     5      (5,1,1)               0.0000000       0.0000000       0.0000000            CHD       
     6      (6,1,1)               0.0000000       0.0000000       0.0000000            CHD       
     7      (7,1,1)               0.0000000       0.0000000       0.0000000            CHD       
     8      (8,1,1)               0.0000000       0.0000000       0.0000000            CHD       
     9      (9,1,1)               0.0000000       0.0000000       0.0000000            CHD       
     10     (10,1,1)              0.0000000       0.0000000       0.0000000            CHD       
     11     (1,1,25)             -2.08333362E-02  1.9258310      -4.01214840E-02       CHD       
     12     (2,1,25)             -2.08333362E-02  1.9258310      -4.01214840E-02       CHD       
     13     (3,1,25)             -2.08333362E-02  1.9258310      -4.01214840E-02       CHD       
     14     (4,1,25)             -2.08333362E-02  1.9258310      -4.01214840E-02       CHD       
     15     (5,1,25)             -2.08333362E-02  1.9258310      -4.01214840E-02       CHD       
     16     (6,1,25)             -2.08333362E-02  1.9258310      -4.01214840E-02       CHD       
     17     (7,1,25)             -2.08333362E-02  1.9258310      -4.01214840E-02       CHD       
     18     (8,1,25)             -2.08333362E-02  1.9258310      -4.01214840E-02       CHD       
     19     (9,1,25)             -2.08333362E-02  1.9258310      -4.01214840E-02       CHD       
     20     (10,1,25)            -2.08333362E-02  1.9258310      -4.01214840E-02       CHD       
 ------------------------------------------------------------------------------------------------




 CNC PACKAGE (CNC) FLOW RATES   PERIOD      1   STEP        3
 -----------------------------------------------
   NUMBER   CELLID                    RATE      
 -----------------------------------------------
     1      (4,1,1)               4.00530992E-02
     2      (5,1,1)               4.03910589E-02
     3      (6,1,1)               4.03883413E-02
     4      (7,1,1)               4.03867873E-02
     5      (8,1,1)               4.03859628E-02
     6      (9,1,1)               4.03855594E-02
     7      (10,1,1)              4.03853974E-02
 -----------------------------------------------



1
  CONCENTRATION IN LAYER   1 AT END OF TIME STEP   3 IN STRESS PERIOD    1
  ---------------------------------------------------------------------------

                1               2               3               4               5               6               7               8               9              10
               11              12              13              14              15              16              17              18              19              20
               21              22              23              24              25
 ................................................................................................................................................................
   1  1.913251323     1.921240158     1.925093643     1.925728130     1.925817097     1.925829169     1.925830791     1.925830991     1.925830993     1.925830982    
      1.925830973     1.925830968     1.925830962     1.925830957     1.925830953     1.925830951     1.925830949     1.925830948     1.925830948     1.925830949    
      1.925830952     1.925830955     1.925830960     1.925830965     1.925830968    
1
  CONCENTRATION IN LAYER   2 AT END OF TIME STEP   3 IN STRESS PERIOD    1
  ---------------------------------------------------------------------------

                1               2               3               4               5               6               7               8               9              10
               11              12              13              14              15              16              17              18              19              20
               21              22              23              24              25
 ................................................................................................................................................................
   1  1.913875949     1.921810357     1.925170431     1.925735401     1.925817810     1.925829255     1.925830801     1.925830991     1.925830997     1.925830982    
      1.925830973     1.925830967     1.925830960     1.925830954     1.925830949     1.925830946     1.925830944     1.925830943     1.925830944     1.925830945    
      1.925830948     1.925830953     1.925830958     1.925830964     1.925830968    
1
  CONCENTRATION IN LAYER   3 AT END OF TIME STEP   3 IN STRESS PERIOD    1
  ---------------------------------------------------------------------------

                1               2               3               4               5               6               7               8               9              10
               11              12              13              14              15              16              17              18              19              20
               21              22              23              24              25
 ................................................................................................................................................................
   1  1.917697434     1.922917519     1.925295432     1.925747322     1.925819073     1.925829414     1.925830817     1.925830995     1.925831001     1.925830983    
      1.925830972     1.925830965     1.925830958     1.925830950     1.925830944     1.925830940     1.925830937     1.925830937     1.925830937     1.925830939    
      1.925830943     1.925830949     1.925830955     1.925830963     1.925830968    
1
  CONCENTRATION IN LAYER   4 AT END OF TIME STEP   3 IN STRESS PERIOD    1
  ---------------------------------------------------------------------------

                1               2               3               4               5               6               7               8               9              10
               11              12              13              14              15              16              17              18              19              20
               21              22              23              24              25
 ................................................................................................................................................................
   1  1.934263440     1.924342055     1.925401716     1.925760128     1.925820677     1.925829622     1.925830832     1.925831002     1.925831006     1.925830984    
      1.925830972     1.925830964     1.925830955     1.925830946     1.925830824     1.925830934     1.925830931     1.925830930     1.925830931     1.925830934    
      1.925830938     1.925830945     1.925830838     1.925830962     1.925830967    
1
  CONCENTRATION IN LAYER   5 AT END OF TIME STEP   3 IN STRESS PERIOD    1
  ---------------------------------------------------------------------------

                1               2               3               4               5               6               7               8               9              10
               11              12              13              14              15              16              17              18              19              20
               21              22              23              24              25
 ................................................................................................................................................................
   1  1.934263440     1.925090172     1.925541231     1.925775539     1.925822480     1.925829851     1.925830846     1.925831009     1.925831010     1.925830985    
      1.925830972     1.925830964     1.925830954     1.925830944     1.925830936     1.925830930     1.925830927     1.925830926     1.925830927     1.925830930    
      1.925830935     1.925830942     1.925830951     1.925830962     1.925830967    
1
  CONCENTRATION IN LAYER   6 AT END OF TIME STEP   3 IN STRESS PERIOD    1
  ---------------------------------------------------------------------------

                1               2               3               4               5               6               7               8               9              10
               11              12              13              14              15              16              17              18              19              20
               21              22              23              24              25
 ................................................................................................................................................................
   1  1.934263440     1.925470404     1.925651648     1.925790660     1.925824302     1.925830074     1.925830861     1.925831013     1.925831011     1.925830985    
      1.925830972     1.925830964     1.925830954     1.925830944     1.925830935     1.925830929     1.925830926     1.925830925     1.925830925     1.925830928    
      1.925830934     1.925830941     1.925830950     1.925830961     1.925830967    
1
  CONCENTRATION IN LAYER   7 AT END OF TIME STEP   3 IN STRESS PERIOD    1
  ---------------------------------------------------------------------------

                1               2               3               4               5               6               7               8               9              10
               11              12              13              14              15              16              17              18              19              20
               21              22              23              24              25
 ................................................................................................................................................................
   1  1.934263440     1.925659535     1.925724062     1.925803236     1.925825937     1.925830270     1.925830877     1.925831014     1.925831009     1.925830985    
      1.925830972     1.925830964     1.925830955     1.925830945     1.925830936     1.925830930     1.925830927     1.925830926     1.925830926     1.925830929    
      1.925830934     1.925830942     1.925830950     1.925830961     1.925830967    
1
  CONCENTRATION IN LAYER   8 AT END OF TIME STEP   3 IN STRESS PERIOD    1
  ---------------------------------------------------------------------------

                1               2               3               4               5               6               7               8               9              10
               11              12              13              14              15              16              17              18              19              20
               21              22              23              24              25
 ................................................................................................................................................................
   1  1.934263440     1.925750151     1.925768267     1.925812387     1.925827232     1.925830424     1.925830892     1.925831013     1.925831005     1.925830984    
      1.925830973     1.925830965     1.925830956     1.925830946     1.925830938     1.925830933     1.925830930     1.925830929     1.925830929     1.925830932    
      1.925830937     1.925830943     1.925830951     1.925830961     1.925830967    
1
  CONCENTRATION IN LAYER   9 AT END OF TIME STEP   3 IN STRESS PERIOD    1
  ---------------------------------------------------------------------------

                1               2               3               4               5               6               7               8               9              10
               11              12              13              14              15              16              17              18              19              20
               21              22              23              24              25
 ................................................................................................................................................................
   1  1.934263440     1.925791458     1.925792779     1.925818118     1.925828106     1.925830527     1.925830908     1.925831009     1.925831000     1.925830983    
      1.925830974     1.925830966     1.925830958     1.925830949     1.925830942     1.925830938     1.925830935     1.925830934     1.925830934     1.925830936    
      1.925830940     1.925830946     1.925830953     1.925830962     1.925830967    
1
  CONCENTRATION IN LAYER  10 AT END OF TIME STEP   3 IN STRESS PERIOD    1
  ---------------------------------------------------------------------------

                1               2               3               4               5               6               7               8               9              10
               11              12              13              14              15              16              17              18              19              20
               21              22              23              24              25
 ................................................................................................................................................................
   1  1.934263440     1.925806935     1.925804275     1.925820535     1.925828525     1.925830575     1.925830919     1.925831005     1.925830996     1.925830984    
      1.925830974     1.925830967     1.925830960     1.925830952     1.925830832     1.925830943     1.925830940     1.925830939     1.925830939     1.925830941    
      1.925830944     1.925830949     1.925830955     1.925830962     1.925830967    

 CONCENTRATION WILL BE SAVED ON UNIT 2133 AT END OF TIME STEP    3, STRESS PERIOD    1


  MASS BUDGET FOR ENTIRE MODEL AT END OF TIME STEP    3, STRESS PERIOD   1
  ---------------------------------------------------------------------------------------------------

     CUMULATIVE MASS      M       RATES FOR THIS TIME STEP      M/T          PACKAGE NAME    
     ------------------                 ------------------------                     ----------------

           IN:                                      IN:
           ---                                      ---
     STORAGE-AQUEOUS =       2.1772E-04       STORAGE-AQUEOUS =       2.1221E-05     MST                              
                 CHD =           3.8885                   CHD =           0.1296     SSM_CHD                          
                 CNC =           8.4811                   CNC =           0.2827     CNC                              

            TOTAL IN =          12.3698              TOTAL IN =           0.4124

          OUT:                                     OUT:
          ----                                     ----
     STORAGE-AQUEOUS =           0.3120       STORAGE-AQUEOUS =       1.0798E-02     MST                              
                 CHD =          12.0364                   CHD =           0.4012     SSM_CHD                          
                 CNC =       2.1347E-02                   CNC =       3.4222E-04     CNC                              

           TOTAL OUT =          12.3698             TOTAL OUT =           0.4124

            IN - OUT =       9.5680E-08              IN - OUT =       4.5402E-09

 PERCENT DISCREPANCY =           0.00     PERCENT DISCREPANCY =           0.00




         TIME SUMMARY AT END OF TIME STEP    3 IN STRESS PERIOD    1
                    SECONDS     MINUTES      HOURS       DAYS        YEARS
                    -----------------------------------------------------------
   TIME STEP LENGTH 8.64000E+05  14400.      240.00      10.000     2.73785E-02
 STRESS PERIOD TIME 2.59200E+06  43200.      720.00      30.000     8.21355E-02
         TOTAL TIME 2.59200E+06  43200.      720.00      30.000     8.21355E-02


end timestep


start timestep kper="1" kstp="4" mode="normal"

 UBDSV06 SAVING  SOURCE-SINK MIX IN MODEL SI               PACKAGE SI              CONNECTED TO MODEL SI               PACKAGE SSM              ON UNIT   2132 AT TIME STEP      4, STRESS PERIOD      1
 UBDSV06 SAVING              CNC IN MODEL SI               PACKAGE SI              CONNECTED TO MODEL SI               PACKAGE CNC              ON UNIT   2132 AT TIME STEP      4, STRESS PERIOD      1

 SSM PACKAGE (SSM) FLOW RATES   PERIOD      1   STEP        4
 ------------------------------------------------------------------------------------------------
   NUMBER   CELLID                   BOUND Q        SSM CONC          RATE         PACKAGE NAME  
 ------------------------------------------------------------------------------------------------
     1      (1,1,1)               2.08333321E-02  2.0738495       4.32051948E-02       CHD       
     2      (2,1,1)               2.08333321E-02  2.0738495       4.32051948E-02       CHD       
     3      (3,1,1)               2.08333321E-02  2.0738495       4.32051948E-02       CHD       
     4      (4,1,1)               0.0000000       0.0000000       0.0000000            CHD       
     5      (5,1,1)               0.0000000       0.0000000       0.0000000            CHD       
     6      (6,1,1)               0.0000000       0.0000000       0.0000000            CHD       
     7      (7,1,1)               0.0000000       0.0000000       0.0000000            CHD       
     8      (8,1,1)               0.0000000       0.0000000       0.0000000            CHD       
     9      (9,1,1)               0.0000000       0.0000000       0.0000000            CHD       
     10     (10,1,1)              0.0000000       0.0000000       0.0000000            CHD       
     11     (1,1,25)             -2.08333356E-02  1.9258310      -4.01214829E-02       CHD       
     12     (2,1,25)             -2.08333356E-02  1.9258310      -4.01214829E-02       CHD       
     13     (3,1,25)             -2.08333356E-02  1.9258310      -4.01214829E-02       CHD       
     14     (4,1,25)             -2.08333356E-02  1.9258310      -4.01214829E-02       CHD       
     15     (5,1,25)             -2.08333356E-02  1.9258310      -4.01214829E-02       CHD       
     16     (6,1,25)             -2.08333356E-02  1.9258310      -4.01214829E-02       CHD       
     17     (7,1,25)             -2.08333356E-02  1.9258310      -4.01214829E-02       CHD       
     18     (8,1,25)             -2.08333356E-02  1.9258310      -4.01214829E-02       CHD       
     19     (9,1,25)             -2.08333356E-02  1.9258310      -4.01214829E-02       CHD       
     20     (10,1,25)            -2.08333356E-02  1.9258310      -4.01214829E-02       CHD       
 ------------------------------------------------------------------------------------------------




 CNC PACKAGE (CNC) FLOW RATES   PERIOD      1   STEP        4
 -----------------------------------------------
   NUMBER   CELLID                    RATE      
 -----------------------------------------------
     1      (4,1,1)               4.02358314E-02
     2      (5,1,1)               4.03961122E-02
     3      (6,1,1)               4.03912844E-02
     4      (7,1,1)               4.03884442E-02
     5      (8,1,1)               4.03868824E-02
     6      (9,1,1)               4.03860886E-02
     7      (10,1,1)              4.03857609E-02
 -----------------------------------------------



1
  CONCENTRATION IN LAYER   1 AT END OF TIME STEP   4 IN STRESS PERIOD    1
  ---------------------------------------------------------------------------

                1               2               3               4               5               6               7               8               9              10
               11              12              13              14              15              16              17              18              19              20
               21              22              23              24              25
 ................................................................................................................................................................
   1  1.913048014     1.919816062     1.924652457     1.925631700     1.925799561     1.925826302     1.925830336     1.925830921     1.925830997     1.925830992    
      1.925830977     1.925830967     1.925830960     1.925830954     1.925830949     1.925830946     1.925830943     1.925830942     1.925830942     1.925830944    
      1.925830947     1.925830951     1.925830957     1.925830963     1.925830967    
1
  CONCENTRATION IN LAYER   2 AT END OF TIME STEP   4 IN STRESS PERIOD    1
  ---------------------------------------------------------------------------

                1               2               3               4               5               6               7               8               9              10
               11              12              13              14              15              16              17              18              19              20
               21              22              23              24              25
 ................................................................................................................................................................
   1  1.913255296     1.920531692     1.924766885     1.925644453     1.925801015     1.925826486     1.925830359     1.925830920     1.925831001     1.925830995    
      1.925830977     1.925830965     1.925830958     1.925830951     1.925830946     1.925830942     1.925830939     1.925830938     1.925830939     1.925830941    
      1.925830944     1.925830949     1.925830955     1.925830963     1.925830967    
1
  CONCENTRATION IN LAYER   3 AT END OF TIME STEP   4 IN STRESS PERIOD    1
  ---------------------------------------------------------------------------

                1               2               3               4               5               6               7               8               9              10
               11              12              13              14              15              16              17              18              19              20
               21              22              23              24              25
 ................................................................................................................................................................
   1  1.916855624     1.921921571     1.924952819     1.925665404     1.925803613     1.925826828     1.925830401     1.925830918     1.925831010     1.925830998    
      1.925830975     1.925830963     1.925830955     1.925830948     1.925830941     1.925830937     1.925830933     1.925830932     1.925830933     1.925830935    
      1.925830940     1.925830946     1.925830953     1.925830962     1.925830967    
1
  CONCENTRATION IN LAYER   4 AT END OF TIME STEP   4 IN STRESS PERIOD    1
  ---------------------------------------------------------------------------

                1               2               3               4               5               6               7               8               9              10
               11              12              13              14              15              16              17              18              19              20
               21              22              23              24              25
 ................................................................................................................................................................
   1  1.934263440     1.923697622     1.925113428     1.925688468     1.925806965     1.925827286     1.925830455     1.925830920     1.925831019     1.925831001    
      1.925830974     1.925830961     1.925830952     1.925830944     1.925830937     1.925830931     1.925830928     1.925830926     1.925830927     1.925830930    
      1.925830935     1.925830942     1.925830950     1.925830961     1.925830966    
1
  CONCENTRATION IN LAYER   5 AT END OF TIME STEP   4 IN STRESS PERIOD    1
  ---------------------------------------------------------------------------

                1               2               3               4               5               6               7               8               9              10
               11              12              13              14              15              16              17              18              19              20
               21              22              23              24              25
 ................................................................................................................................................................
   1  1.934263440     1.924697905     1.925327735     1.925716587     1.925810782     1.925827806     1.925830516     1.925830924     1.925831026     1.925831003    
      1.925830973     1.925830960     1.925830951     1.925830942     1.925830934     1.925830928     1.925830924     1.925830922     1.925830923     1.925830927    
      1.925830932     1.925830940     1.925830949     1.925830960     1.925830966    
1
  CONCENTRATION IN LAYER   6 AT END OF TIME STEP   4 IN STRESS PERIOD    1
  ---------------------------------------------------------------------------

                1               2               3               4               5               6               7               8               9              10
               11              12              13              14              15              16              17              18              19              20
               21              22              23              24              25
 ................................................................................................................................................................
   1  1.934263440     1.925242693     1.925505972     1.925745061     1.925814698     1.925828335     1.925830578     1.925830931     1.925831030     1.925831003    
      1.925830973     1.925830960     1.925830950     1.925830942     1.925830933     1.925830927     1.925830922     1.925830921     1.925830922     1.925830925    
      1.925830931     1.925830939     1.925830948     1.925830959     1.925830966    
1
  CONCENTRATION IN LAYER   7 AT END OF TIME STEP   4 IN STRESS PERIOD    1
  ---------------------------------------------------------------------------

                1               2               3               4               5               6               7               8               9              10
               11              12              13              14              15              16              17              18              19              20
               21              22              23              24              25
 ................................................................................................................................................................
   1  1.934263440     1.925531674     1.925629784     1.925769598     1.925818289     1.925828822     1.925830635     1.925830940     1.925831030     1.925831002    
      1.925830973     1.925830960     1.925830951     1.925830942     1.925830934     1.925830928     1.925830923     1.925830922     1.925830923     1.925830926    
      1.925830931     1.925830939     1.925830948     1.925830959     1.925830966    
1
  CONCENTRATION IN LAYER   8 AT END OF TIME STEP   4 IN STRESS PERIOD    1
  ---------------------------------------------------------------------------

                1               2               3               4               5               6               7               8               9              10
               11              12              13              14              15              16              17              18              19              20
               21              22              23              24              25
 ................................................................................................................................................................
   1  1.934263440     1.925679332     1.925708382     1.925788160     1.925821197     1.925829220     1.925830684     1.925830949     1.925831025     1.925831000    
      1.925830974     1.925830961     1.925830952     1.925830829     1.925830936     1.925830930     1.925830811     1.925830924     1.925830925     1.925830928    
      1.925830933     1.925830940     1.925830948     1.925830959     1.925830966    
1
  CONCENTRATION IN LAYER   9 AT END OF TIME STEP   4 IN STRESS PERIOD    1
  ---------------------------------------------------------------------------

                1               2               3               4               5               6               7               8               9              10
               11              12              13              14              15              16              17              18              19              20
               21              22              23              24              25
 ................................................................................................................................................................
   1  1.934263440     1.925750312     1.925754088     1.925799799     1.925823179     1.925829498     1.925830719     1.925830956     1.925831019     1.925830997    
      1.925830975     1.925830848     1.925830954     1.925830946     1.925830939     1.925830934     1.925830930     1.925830928     1.925830929     1.925830931    
      1.925830936     1.925830942     1.925830950     1.925830960     1.925830966    
1
  CONCENTRATION IN LAYER  10 AT END OF TIME STEP   4 IN STRESS PERIOD    1
  ---------------------------------------------------------------------------

                1               2               3               4               5               6               7               8               9              10
               11              12              13              14              15              16              17              18              19              20
               21              22              23              24              25
 ................................................................................................................................................................
   1  1.934263440     1.925778340     1.925775527     1.925805013     1.925824148     1.925829640     1.925830738     1.925830961     1.925831014     1.925830996    
      1.925830976     1.925830965     1.925830957     1.925830949     1.925830943     1.925830938     1.925830934     1.925830933     1.925830933     1.925830935    
      1.925830939     1.925830945     1.925830951     1.925830960     1.925830966    

 CONCENTRATION WILL BE SAVED ON UNIT 2133 AT END OF TIME STEP    4, STRESS PERIOD    1


  MASS BUDGET FOR ENTIRE MODEL AT END OF TIME STEP    4, STRESS PERIOD   1
  ---------------------------------------------------------------------------------------------------

     CUMULATIVE MASS      M       RATES FOR THIS TIME STEP      M/T          PACKAGE NAME    
     ------------------                 ------------------------                     ----------------

           IN:                                      IN:
           ---                                      ---
     STORAGE-AQUEOUS =       9.3489E-04       STORAGE-AQUEOUS =       7.1718E-05     MST                              
                 CHD =           5.1846                   CHD =           0.1296     SSM_CHD                          
                 CNC =          11.3084                   CNC =           0.2827     CNC                              

            TOTAL IN =          16.4940              TOTAL IN =           0.4124

          OUT:                                     OUT:
          ----                                     ----
     STORAGE-AQUEOUS =           0.4224       STORAGE-AQUEOUS =       1.1043E-02     MST                              
                 CHD =          16.0486                   CHD =           0.4012     SSM_CHD                          
                 CNC =       2.3025E-02                   CNC =       1.6777E-04     CNC                              

           TOTAL OUT =          16.4940             TOTAL OUT =           0.4124

            IN - OUT =       1.3814E-07              IN - OUT =       4.2465E-09

 PERCENT DISCREPANCY =           0.00     PERCENT DISCREPANCY =           0.00




         TIME SUMMARY AT END OF TIME STEP    4 IN STRESS PERIOD    1
                    SECONDS     MINUTES      HOURS       DAYS        YEARS
                    -----------------------------------------------------------
   TIME STEP LENGTH 8.64000E+05  14400.      240.00      10.000     2.73785E-02
 STRESS PERIOD TIME 3.45600E+06  57600.      960.00      40.000     0.10951    
         TOTAL TIME 3.45600E+06  57600.      960.00      40.000     0.10951    


end timestep


start timestep kper="1" kstp="5" mode="normal"

 UBDSV06 SAVING  SOURCE-SINK MIX IN MODEL SI               PACKAGE SI              CONNECTED TO MODEL SI               PACKAGE SSM              ON UNIT   2132 AT TIME STEP      5, STRESS PERIOD      1
 UBDSV06 SAVING              CNC IN MODEL SI               PACKAGE SI              CONNECTED TO MODEL SI               PACKAGE CNC              ON UNIT   2132 AT TIME STEP      5, STRESS PERIOD      1

 SSM PACKAGE (SSM) FLOW RATES   PERIOD      1   STEP        5
 ------------------------------------------------------------------------------------------------
   NUMBER   CELLID                   BOUND Q        SSM CONC          RATE         PACKAGE NAME  
 ------------------------------------------------------------------------------------------------
     1      (1,1,1)               2.08333321E-02  2.0738495       4.32051947E-02       CHD       
     2      (2,1,1)               2.08333321E-02  2.0738495       4.32051947E-02       CHD       
     3      (3,1,1)               2.08333321E-02  2.0738495       4.32051947E-02       CHD       
     4      (4,1,1)               0.0000000       0.0000000       0.0000000            CHD       
     5      (5,1,1)               0.0000000       0.0000000       0.0000000            CHD       
     6      (6,1,1)               0.0000000       0.0000000       0.0000000            CHD       
     7      (7,1,1)               0.0000000       0.0000000       0.0000000            CHD       
     8      (8,1,1)               0.0000000       0.0000000       0.0000000            CHD       
     9      (9,1,1)               0.0000000       0.0000000       0.0000000            CHD       
     10     (10,1,1)              0.0000000       0.0000000       0.0000000            CHD       
     11     (1,1,25)             -2.08333353E-02  1.9258310      -4.01214823E-02       CHD       
[...]
               21              22              23              24              25
 ................................................................................................................................................................
   1  1.934263440     1.924799711     1.923473200     1.922355791     1.921557600     1.921037988     1.920699025     1.920487104     1.920360574     1.920284260    
      1.920232915     1.920191152     1.920152084     1.920118448     1.920090142     1.920083316     1.920076622     1.920083056     1.920110688     1.920159752    
      1.920245278     1.920364196     1.920517504     1.920702336     1.920900271    

 CONCENTRATION WILL BE SAVED ON UNIT 2133 AT END OF TIME STEP  199, STRESS PERIOD    1


  MASS BUDGET FOR ENTIRE MODEL AT END OF TIME STEP  199, STRESS PERIOD   1
  ---------------------------------------------------------------------------------------------------

     CUMULATIVE MASS      M       RATES FOR THIS TIME STEP      M/T          PACKAGE NAME    
     ------------------                 ------------------------                     ----------------

           IN:                                      IN:
           ---                                      ---
     STORAGE-AQUEOUS =           1.8096       STORAGE-AQUEOUS =       2.4863E-04     MST                              
                 CHD =         257.9350                   CHD =           0.1296     SSM_CHD                          
                 CNC =         563.5284                   CNC =           0.2832     CNC                              

            TOTAL IN =         823.2731              TOTAL IN =           0.4131

          OUT:                                     OUT:
          ----                                     ----
     STORAGE-AQUEOUS =          25.3206       STORAGE-AQUEOUS =       1.2874E-02     MST                              
                 CHD =         797.9266                   CHD =           0.4002     SSM_CHD                          
                 CNC =       2.5797E-02                   CNC =           0.0000     CNC                              

           TOTAL OUT =         823.2731             TOTAL OUT =           0.4131

            IN - OUT =       7.1842E-06              IN - OUT =       3.7296E-09

 PERCENT DISCREPANCY =           0.00     PERCENT DISCREPANCY =           0.00




         TIME SUMMARY AT END OF TIME STEP  199 IN STRESS PERIOD    1
                    SECONDS     MINUTES      HOURS       DAYS        YEARS
                    -----------------------------------------------------------
   TIME STEP LENGTH 8.64000E+05  14400.      240.00      10.000     2.73785E-02
 STRESS PERIOD TIME 1.71936E+08 2.86560E+06  47760.      1990.0      5.4483    
         TOTAL TIME 1.71936E+08 2.86560E+06  47760.      1990.0      5.4483    


end timestep


start timestep kper="1" kstp="200" mode="normal"

 UBDSV06 SAVING  SOURCE-SINK MIX IN MODEL SI               PACKAGE SI              CONNECTED TO MODEL SI               PACKAGE SSM              ON UNIT   2132 AT TIME STEP    200, STRESS PERIOD      1
 UBDSV06 SAVING              CNC IN MODEL SI               PACKAGE SI              CONNECTED TO MODEL SI               PACKAGE CNC              ON UNIT   2132 AT TIME STEP    200, STRESS PERIOD      1

 SSM PACKAGE (SSM) FLOW RATES   PERIOD      1   STEP      200
 ------------------------------------------------------------------------------------------------
   NUMBER   CELLID                   BOUND Q        SSM CONC          RATE         PACKAGE NAME  
 ------------------------------------------------------------------------------------------------
     1      (1,1,1)               2.08333330E-02  2.0738495       4.32051966E-02       CHD       
     2      (2,1,1)               2.08333330E-02  2.0738495       4.32051966E-02       CHD       
     3      (3,1,1)               2.08333330E-02  2.0738495       4.32051966E-02       CHD       
     4      (4,1,1)               0.0000000       0.0000000       0.0000000            CHD       
     5      (5,1,1)               0.0000000       0.0000000       0.0000000            CHD       
     6      (6,1,1)               0.0000000       0.0000000       0.0000000            CHD       
     7      (7,1,1)               0.0000000       0.0000000       0.0000000            CHD       
     8      (8,1,1)               0.0000000       0.0000000       0.0000000            CHD       
     9      (9,1,1)               0.0000000       0.0000000       0.0000000            CHD       
     10     (10,1,1)              0.0000000       0.0000000       0.0000000            CHD       
     11     (1,1,25)             -2.08333337E-02  1.9208674      -4.00180720E-02       CHD       
     12     (2,1,25)             -2.08333337E-02  1.9208674      -4.00180720E-02       CHD       
     13     (3,1,25)             -2.08333337E-02  1.9208674      -4.00180720E-02       CHD       
     14     (4,1,25)             -2.08333337E-02  1.9208674      -4.00180720E-02       CHD       
     15     (5,1,25)             -2.08333337E-02  1.9208674      -4.00180720E-02       CHD       
     16     (6,1,25)             -2.08333337E-02  1.9208674      -4.00180720E-02       CHD       
     17     (7,1,25)             -2.08333337E-02  1.9208674      -4.00180720E-02       CHD       
     18     (8,1,25)             -2.08333337E-02  1.9208674      -4.00180719E-02       CHD       
     19     (9,1,25)             -2.08333337E-02  1.9208674      -4.00180719E-02       CHD       
     20     (10,1,25)            -2.08333337E-02  1.9208674      -4.00180719E-02       CHD       
 ------------------------------------------------------------------------------------------------




 CNC PACKAGE (CNC) FLOW RATES   PERIOD      1   STEP      200
 -----------------------------------------------
   NUMBER   CELLID                    RATE      
 -----------------------------------------------
     1      (4,1,1)               4.07124641E-02
     2      (5,1,1)               4.04412718E-02
     3      (6,1,1)               4.04268741E-02
     4      (7,1,1)               4.04132941E-02
     5      (8,1,1)               4.04051556E-02
     6      (9,1,1)               4.04004819E-02
     7      (10,1,1)              4.03984052E-02
 -----------------------------------------------



1
  CONCENTRATION IN LAYER   1 AT END OF TIME STEP 200 IN STRESS PERIOD    1
  ---------------------------------------------------------------------------

                1               2               3               4               5               6               7               8               9              10
               11              12              13              14              15              16              17              18              19              20
               21              22              23              24              25
 ................................................................................................................................................................
   1  1.907383128     1.913440250     1.917332325     1.918670708     1.919701986     1.919894949     1.920103310     1.920192236     1.920213399     1.920212532    
      1.920193714     1.920174151     1.920148375     1.920119326     1.920092039     1.920084306     1.920077251     1.920082264     1.920107734     1.920152598    
      1.920233937     1.920347896     1.920495802     1.920674976     1.920867424    
1
  CONCENTRATION IN LAYER   2 AT END OF TIME STEP 200 IN STRESS PERIOD    1
  ---------------------------------------------------------------------------

                1               2               3               4               5               6               7               8               9              10
               11              12              13              14              15              16              17              18              19              20
               21              22              23              24              25
 ................................................................................................................................................................
   1  1.909672565     1.914608941     1.917710347     1.918777860     1.919832302     1.919972022     1.920140187     1.920208236     1.920221125     1.920215837    
      1.920196388     1.920175268     1.920148802     1.920119507     1.920092118     1.920084378     1.920077316     1.920082297     1.920107750     1.920152601    
      1.920233939     1.920347896     1.920495801     1.920674976     1.920867424    
1
  CONCENTRATION IN LAYER   3 AT END OF TIME STEP 200 IN STRESS PERIOD    1
  ---------------------------------------------------------------------------

                1               2               3               4               5               6               7               8               9              10
               11              12              13              14              15              16              17              18              19              20
               21              22              23              24              25
 ................................................................................................................................................................
   1  1.914596187     1.916721570     1.918381695     1.918988797     1.920052582     1.920112274     1.920207509     1.920238352     1.920235619     1.920222450    
      1.920201201     1.920177345     1.920149626     1.920119857     1.920092271     1.920084515     1.920077439     1.920082361     1.920107779     1.920152607    
      1.920233941     1.920347896     1.920495801     1.920674976     1.920867424    
1
  CONCENTRATION IN LAYER   4 AT END OF TIME STEP 200 IN STRESS PERIOD    1
  ---------------------------------------------------------------------------

                1               2               3               4               5               6               7               8               9              10
               11              12              13              14              15              16              17              18              19              20
               21              22              23              24              25
 ................................................................................................................................................................
   1  1.934263440     1.919194540     1.919195791     1.920122697     1.920311457     1.920290153     1.920293063     1.920279023     1.920255182     1.920232586    
      1.920207070     1.920180097     1.920150780     1.920120353     1.920092486     1.920084706     1.920077610     1.920082449     1.920107819     1.920152615    
      1.920233944     1.920347896     1.920495800     1.920674976     1.920867424    
1
  CONCENTRATION IN LAYER   5 AT END OF TIME STEP 200 IN STRESS PERIOD    1
  ---------------------------------------------------------------------------

                1               2               3               4               5               6               7               8               9              10
               11              12              13              14              15              16              17              18              19              20
               21              22              23              24              25
 ................................................................................................................................................................
   1  1.934263440     1.920853606     1.919974269     1.920561989     1.920583090     1.920472389     1.920388088     1.920325618     1.920279042     1.920244368    
      1.920213468     1.920183248     1.920152148     1.920120950     1.920092746     1.920084934     1.920077811     1.920082553     1.920107867     1.920152626    
      1.920233948     1.920347897     1.920495800     1.920674975     1.920867424    
1
  CONCENTRATION IN LAYER   6 AT END OF TIME STEP 200 IN STRESS PERIOD    1
  ---------------------------------------------------------------------------

                1               2               3               4               5               6               7               8               9              10
               11              12              13              14              15              16              17              18              19              20
               21              22              23              24              25
 ................................................................................................................................................................
   1  1.934263440     1.921920970     1.920659506     1.921069817     1.920854657     1.920642373     1.920481532     1.920373729     1.920303723     1.920256833    
      1.920220092     1.920186514     1.920153570     1.920121584     1.920093027     1.920085177     1.920078025     1.920082662     1.920107916     1.920152637    
      1.920233953     1.920347897     1.920495799     1.920674975     1.920867424    
1
  CONCENTRATION IN LAYER   7 AT END OF TIME STEP 200 IN STRESS PERIOD    1
  ---------------------------------------------------------------------------

                1               2               3               4               5               6               7               8               9              10
               11              12              13              14              15              16              17              18              19              20
               21              22              23              24              25
 ................................................................................................................................................................
   1  1.934263440     1.923752030     1.922225244     1.921553784     1.921109741     1.920792000     1.920565927     1.920418608     1.920327007     1.920268703    
      1.920226389     1.920189678     1.920154818     1.920122180     1.920093301     1.920085412     1.920078229     1.920082766     1.920107963     1.920152648    
      1.920233957     1.920347898     1.920495799     1.920674974     1.920867424    
1
  CONCENTRATION IN LAYER   8 AT END OF TIME STEP 200 IN STRESS PERIOD    1
  ---------------------------------------------------------------------------

                1               2               3               4               5               6               7               8               9              10
               11              12              13              14              15              16              17              18              19              20
               21              22              23              24              25
 ................................................................................................................................................................
   1  1.934263440     1.924306447     1.923031316     1.921941741     1.921322447     1.920913509     1.920635161     1.920456193     1.920346699     1.920278801    
      1.920231697     1.920192511     1.920155771     1.920122675     1.920093541     1.920085615     1.920078403     1.920082854     1.920108003     1.920152657    
      1.920233961     1.920347898     1.920495799     1.920674974     1.920867423    
1
  CONCENTRATION IN LAYER   9 AT END OF TIME STEP 200 IN STRESS PERIOD    1
  ---------------------------------------------------------------------------

                1               2               3               4               5               6               7               8               9              10
               11              12              13              14              15              16              17              18              19              20
               21              22              23              24              25
 ................................................................................................................................................................
   1  1.934263440     1.924653317     1.923321286     1.922208499     1.921474853     1.920999613     1.920684270     1.920483207     1.920360949     1.920286135    
      1.920235537     1.920194623     1.920156421     1.920123030     1.920093719     1.920085765     1.920078531     1.920082918     1.920108032     1.920152664    
      1.920233963     1.920347899     1.920495799     1.920674974     1.920867423    
1
  CONCENTRATION IN LAYER  10 AT END OF TIME STEP 200 IN STRESS PERIOD    1
  ---------------------------------------------------------------------------

                1               2               3               4               5               6               7               8               9              10
               11              12              13              14              15              16              17              18              19              20
               21              22              23              24              25
 ................................................................................................................................................................
   1  1.934263440     1.924792880     1.923468469     1.922344311     1.921553984     1.921044309     1.920709736     1.920497320     1.920368422     1.920289990    
      1.920237552     1.920195747     1.920156751     1.920123216     1.920093815     1.920085845     1.920078598     1.920082952     1.920108047     1.920152668    
      1.920233736     1.920347899     1.920495799     1.920674974     1.920867423    

 CONCENTRATION WILL BE SAVED ON UNIT 2133 AT END OF TIME STEP  200, STRESS PERIOD    1


  MASS BUDGET FOR ENTIRE MODEL AT END OF TIME STEP  200, STRESS PERIOD   1
  ---------------------------------------------------------------------------------------------------

     CUMULATIVE MASS      M       RATES FOR THIS TIME STEP      M/T          PACKAGE NAME    
     ------------------                 ------------------------                     ----------------

           IN:                                      IN:
           ---                                      ---
     STORAGE-AQUEOUS =           1.8122       STORAGE-AQUEOUS =       2.5956E-04     MST                              
                 CHD =         259.2312                   CHD =           0.1296     SSM_CHD                          
                 CNC =         566.3604                   CNC =           0.2832     CNC                              

            TOTAL IN =         827.4038              TOTAL IN =           0.4131

          OUT:                                     OUT:
          ----                                     ----
     STORAGE-AQUEOUS =          25.4496       STORAGE-AQUEOUS =       1.2892E-02     MST                              
                 CHD =         801.9285                   CHD =           0.4002     SSM_CHD                          
                 CNC =       2.5797E-02                   CNC =           0.0000     CNC                              

           TOTAL OUT =         827.4038             TOTAL OUT =           0.4131

            IN - OUT =       7.2213E-06              IN - OUT =       3.7099E-09

 PERCENT DISCREPANCY =           0.00     PERCENT DISCREPANCY =           0.00




         TIME SUMMARY AT END OF TIME STEP  200 IN STRESS PERIOD    1
                    SECONDS     MINUTES      HOURS       DAYS        YEARS
                    -----------------------------------------------------------
   TIME STEP LENGTH 8.64000E+05  14400.      240.00      10.000     2.73785E-02
 STRESS PERIOD TIME 1.72800E+08 2.88000E+06  48000.      2000.0      5.4757    
         TOTAL TIME 1.72800E+08 2.88000E+06  48000.      2000.0      5.4757    


end timestep

