                                   MODFLOW 6
                U.S. GEOLOGICAL SURVEY MODULAR HYDROLOGIC MODEL
                       GROUNDWATER TRANSPORT MODEL (GWT)
                VERSION 6.5.0.dev0+prt (preliminary) 10/07/2023
                               ***DEVELOP MODE***

   MODFLOW 6 compiled Oct 07 2023 02:19:02 with Intel(R) Fortran Intel(R) 64
   Compiler Classic for applications running on Intel(R) 64, Version 2021.7.0
                             Build 20220726_000000

This software is preliminary or provisional and is subject to 
revision. It is being provided to meet the need for timely best 
science. The software has not received final approval by the U.S. 
Geological Survey (USGS). No warranty, expressed or implied, is made 
by the USGS or the U.S. Government as to the functionality of the 
software and related material nor shall the fact of release 
constitute any such warranty. The software is provided on the 
condition that neither the USGS nor the U.S. Government shall be held 
liable for any damages resulting from the authorized or unauthorized 
use of the software.


As a work of the United States Government, this USGS product is 
in the public domain within the United States. You can copy, 
modify, distribute, and perform the work, even for commercial 
purposes, all without asking permission. Additionally, USGS 
waives copyright and related rights in the work worldwide 
through CC0 1.0 Universal Public Domain Dedication 
(https://creativecommons.org/publicdomain/zero/1.0/).

The following GNU Lesser General Public License (LGPL) libraries
are used in this USGS product:

    SPARSKIT version 2.0
      ilut, luson, and qsplit 
      (https://www-users.cse.umn.edu/~saad/software/SPARSKIT/)

    RCM - Reverse Cuthill McKee Ordering
      (https://people.math.sc.edu/Burkardt/f_src/rcm/rcm.html)

    BLAS - Basic Linear Algebra Subprograms Level 1
      (https://people.math.sc.edu/Burkardt/f_src/blas1_d/blas1_d.html)

    SPARSEKIT - Sparse Matrix Utility Package
      amux, dperm, dvperm, rperm, and cperm
      (https://people.sc.fsu.edu/~jburkardt/f77_src/sparsekit/sparsekit.html)

The following BSD-3 License libraries are used in this USGS product:

    Modern Fortran DAG Library
      Copyright (c) 2018, Jacob Williams
      All rights reserved.
      (https://github.com/jacobwilliams/daglib)

MODFLOW 6 compiler options: /Isrc\libmf6core.a.p /Isrc /I..\src
/Isrc\libmf6_external.a.p /MTd /nologo /warn:general /warn:truncated_source
/stand:f08 /Zi /traceback /O2 /fpe:0 /heap-arrays:0 /traceback /fpp
/Qdiag-disable:7416 /Qdiag-disable:7025 /Qdiag-disable:5268
/Fdsrc\libmf6core.a.p\Utilities_compilerversion.F90.pdb
/module:src\libmf6core.a.p
/Fosrc/libmf6core.a.p/Utilities_compilerversion.F90.obj /c

System command used to initiate simulation:
c:\Users\portega\anaconda3\envs\mf6rtm\python.exe -m ipykernel_launcher --f=c:\Users\portega\AppData\Roaming\jupyter\runtime\kernel-v2-11124abUjR79KwWrX.json

MODFLOW was compiled using uniform precision.

Real Variables
  KIND: 8
  TINY (smallest non-zero value):    2.225074-308
  HUGE (largest value):    1.797693+308
  PRECISION: 15
  SIZE IN BITS: 64

Integer Variables
  KIND: 4
  HUGE (largest value): 2147483647
  SIZE IN BITS: 32

Long Integer Variables
  KIND: 8
  HUGE (largest value): 9223372036854775807
  SIZE IN BITS: 64

Logical Variables
  KIND: 4
  SIZE IN BITS: 32
 
 NAMEFILE OPTIONS:
 END NAMEFILE OPTIONS:

 DIS -- STRUCTURED GRID DISCRETIZATION PACKAGE, VERSION 2 : 3/27/2014 - INPUT READ FROM MEMPATH: __INPUT__/SI/DIS                                  


 DSP-- DISPERSION PACKAGE, VERSION 1, 1/24/2018 INPUT READ FROM MEMPATH: __INPUT__/SI/DSP                                  


 Setting Discretization Options
    Model length unit [0=UND, 1=FEET, 2=METERS, 3=CENTIMETERS] set as 2
 End Setting Discretization Options

 Setting Discretization Dimensions
    NLAY = 10
    NROW = 1
    NCOL = 25
 End Setting Discretization Dimensions

 Setting Discretization Griddata
    DELR set from input file
    DELC set from input file
    TOP set from input file
    BOTM set from input file
    IDOMAIN set from input file
 End Setting Discretization Griddata


 FMI -- FLOW MODEL INTERFACE,' VERSION 2, 8/17/2023
  FLOWS PROVIDED BY A GWF MODEL IN THIS SIMULATION

 ADV-- ADVECTION PACKAGE, VERSION 1, 8/25/2017 INPUT READ FROM UNIT 7619


 # File generated by Flopy version 3.5.0.dev0 on 05/31/2024 at 13:58:12.
 PROCESSING ADVECTION OPTIONS
    ADVECTION WEIGHTING SCHEME HAS BEEN SET TO: TVD
 END OF ADVECTION OPTIONS
 Setting DSP Options
    XT3D formulation [0=INACTIVE, 1=ACTIVE, 3=ACTIVE RHS] set to: 0
 End Setting DSP Options

 Setting DSP Griddata
    ALH set from input file
    ATH1 set from input file
    ATV set from input file
 End Setting DSP Griddata


 CNC   -- CNC PACKAGE, VERSION 8, 2/22/2014 INPUT READ FROM UNIT 7653
 # File generated by Flopy version 3.5.0.dev0 on 05/31/2024 at 13:58:12.

 PROCESSING CNC OPTIONS
 END OF CNC OPTIONS

 PROCESSING CNC DIMENSIONS
    MAXBOUND =       7
 END OF CNC DIMENSIONS

 IC -- INITIAL CONDITIONS PACKAGE, VERSION 8, 3/28/2015 INPUT READ FROM UNIT 7617
 # File generated by Flopy version 3.5.0.dev0 on 05/31/2024 at 13:58:12.
 PROCESSING GRIDDATA

 OPENED Si.ic_strt_layer1.txt
 FILE TYPE:OPEN/CLOSE   UNIT 7872   STATUS:OLD                 
 FORMAT:FORMATTED              ACCESS:SEQUENTIAL          
 ACTION:READ                


 OPENED Si.ic_strt_layer2.txt
 FILE TYPE:OPEN/CLOSE   UNIT 7873   STATUS:OLD                 
 FORMAT:FORMATTED              ACCESS:SEQUENTIAL          
 ACTION:READ                


 OPENED Si.ic_strt_layer3.txt
 FILE TYPE:OPEN/CLOSE   UNIT 7874   STATUS:OLD                 
 FORMAT:FORMATTED              ACCESS:SEQUENTIAL          
 ACTION:READ                


 OPENED Si.ic_strt_layer4.txt
 FILE TYPE:OPEN/CLOSE   UNIT 7875   STATUS:OLD                 
 FORMAT:FORMATTED              ACCESS:SEQUENTIAL          
 ACTION:READ                


 OPENED Si.ic_strt_layer5.txt
 FILE TYPE:OPEN/CLOSE   UNIT 7876   STATUS:OLD                 
 FORMAT:FORMATTED              ACCESS:SEQUENTIAL          
 ACTION:READ                


 OPENED Si.ic_strt_layer6.txt
 FILE TYPE:OPEN/CLOSE   UNIT 7877   STATUS:OLD                 
 FORMAT:FORMATTED              ACCESS:SEQUENTIAL          
 ACTION:READ                


 OPENED Si.ic_strt_layer7.txt
 FILE TYPE:OPEN/CLOSE   UNIT 7878   STATUS:OLD                 
 FORMAT:FORMATTED              ACCESS:SEQUENTIAL          
 ACTION:READ                


 OPENED Si.ic_strt_layer8.txt
 FILE TYPE:OPEN/CLOSE   UNIT 7879   STATUS:OLD                 
 FORMAT:FORMATTED              ACCESS:SEQUENTIAL          
 ACTION:READ                


 OPENED Si.ic_strt_layer9.txt
 FILE TYPE:OPEN/CLOSE   UNIT 7880   STATUS:OLD                 
 FORMAT:FORMATTED              ACCESS:SEQUENTIAL          
 ACTION:READ                


 OPENED Si.ic_strt_layer10.txt
 FILE TYPE:OPEN/CLOSE   UNIT 7881   STATUS:OLD                 
 FORMAT:FORMATTED              ACCESS:SEQUENTIAL          
 ACTION:READ                

 END PROCESSING GRIDDATA

 MST -- MOBILE STORAGE AND TRANSFER PACKAGE, VERSION 1, 7/29/2020 INPUT READ FROM UNIT 7618


 # File generated by Flopy version 3.5.0.dev0 on 05/31/2024 at 13:58:12.
 PROCESSING MOBILE STORAGE AND TRANSFER OPTIONS
 END OF MOBILE STORAGE AND TRANSFER OPTIONS
 PROCESSING GRIDDATA

 OPENED Si.mst_porosity.txt
 FILE TYPE:OPEN/CLOSE   UNIT 7882   STATUS:OLD                 
 FORMAT:FORMATTED              ACCESS:SEQUENTIAL          
 ACTION:READ                

 END PROCESSING GRIDDATA

 SSM -- SOURCE-SINK MIXING PACKAGE, VERSION 1, 8/25/2017 INPUT READ FROM UNIT 7651


 # File generated by Flopy version 3.5.0.dev0 on 05/31/2024 at 13:58:12.
 PROCESSING SSM OPTIONS
 END OF SSM OPTIONS

 OPENED Si.ssm_sources.txt
 FILE TYPE:OPEN/CLOSE   UNIT 7883   STATUS:OLD                 
 FORMAT:FORMATTED              ACCESS:SEQUENTIAL          
 ACTION:READ                

 PROCESSING SOURCES
 AUX SOURCE DETECTED.
    USING AUX COLUMN 14 IN PACKAGE CHDTAIL
 END PROCESSING SOURCES
 OPTIONAL FILEINPUT BLOCK NOT FOUND.  CONTINUING.
      THE LAST TIME STEP WILL BE PRINTED
      THE LAST TIME STEP WILL BE PRINTED
 # File generated by Flopy version 3.5.0.dev0 on 05/31/2024 at 13:58:12.

 PROCESSING OC OPTIONS

    BUDGET INFORMATION WILL BE WRITTEN TO:
      UNIT NUMBER: 7884
      FILE NAME: Si.cbb

 OPENED Si.cbb
 FILE TYPE:DATA(BINARY)   UNIT 7884   STATUS:REPLACE             
 FORMAT:UNFORMATTED            ACCESS:STREAM              
 ACTION:READWRITE           

    CONCENTRATION INFORMATION WILL BE WRITTEN TO:
      UNIT NUMBER: 7885
      FILE NAME: Si.ucn

 OPENED Si.ucn
 FILE TYPE:DATA(BINARY)   UNIT 7885   STATUS:REPLACE             
 FORMAT:UNFORMATTED            ACCESS:STREAM              
 ACTION:READWRITE           

 END OF OC OPTIONS

start timestep kper="1" kstp="1" mode="normal"


 BEGIN READING OUTPUT CONTROL FOR STRESS PERIOD 1
      ALL TIME STEPS WILL BE SAVED
      THE LAST TIME STEP WILL BE PRINTED

 END READING OUTPUT CONTROL FOR STRESS PERIOD 1

 OPENED Si.cnc_stress_period_data_1.txt
 FILE TYPE:OPEN/CLOSE   UNIT 7899   STATUS:OLD                 
 FORMAT:FORMATTED              ACCESS:SEQUENTIAL          
 ACTION:READ                


 CONCENTRATION WILL BE SAVED ON UNIT 7885 AT END OF TIME STEP    1, STRESS PERIOD    1



         TIME SUMMARY AT END OF TIME STEP    1 IN STRESS PERIOD    1
                    SECONDS     MINUTES      HOURS       DAYS        YEARS
                    -----------------------------------------------------------
   TIME STEP LENGTH 1.72800E+06  28800.      480.00      20.000     5.47570E-02
 STRESS PERIOD TIME 1.72800E+06  28800.      480.00      20.000     5.47570E-02
         TOTAL TIME 1.72800E+06  28800.      480.00      20.000     5.47570E-02


         ****FAILED TO MEET SOLVER CONVERGENCE CRITERIA IN TIME STEP 1 OF STRESS PERIOD 1****

end timestep


start timestep kper="1" kstp="2" mode="normal"


 CONCENTRATION WILL BE SAVED ON UNIT 7885 AT END OF TIME STEP    2, STRESS PERIOD    1

end timestep


start timestep kper="1" kstp="3" mode="normal"


 CONCENTRATION WILL BE SAVED ON UNIT 7885 AT END OF TIME STEP    3, STRESS PERIOD    1

end timestep


start timestep kper="1" kstp="4" mode="normal"


 CONCENTRATION WILL BE SAVED ON UNIT 7885 AT END OF TIME STEP    4, STRESS PERIOD    1

end timestep


start timestep kper="1" kstp="5" mode="normal"


 CONCENTRATION WILL BE SAVED ON UNIT 7885 AT END OF TIME STEP    5, STRESS PERIOD    1

end timestep


start timestep kper="1" kstp="6" mode="normal"


 CONCENTRATION WILL BE SAVED ON UNIT 7885 AT END OF TIME STEP    6, STRESS PERIOD    1

end timestep


start timestep kper="1" kstp="7" mode="normal"


 CONCENTRATION WILL BE SAVED ON UNIT 7885 AT END OF TIME STEP    7, STRESS PERIOD    1

end timestep


start timestep kper="1" kstp="8" mode="normal"


 CONCENTRATION WILL BE SAVED ON UNIT 7885 AT END OF TIME STEP    8, STRESS PERIOD    1

end timestep


start timestep kper="1" kstp="9" mode="normal"


 CONCENTRATION WILL BE SAVED ON UNIT 7885 AT END OF TIME STEP    9, STRESS PERIOD    1

end timestep


start timestep kper="1" kstp="10" mode="normal"


 CONCENTRATION WILL BE SAVED ON UNIT 7885 AT END OF TIME STEP   10, STRESS PERIOD    1

end timestep


start timestep kper="1" kstp="11" mode="normal"


 CONCENTRATION WILL BE SAVED ON UNIT 7885 AT END OF TIME STEP   11, STRESS PERIOD    1

end timestep


start timestep kper="1" kstp="12" mode="normal"


 CONCENTRATION WILL BE SAVED ON UNIT 7885 AT END OF TIME STEP   12, STRESS PERIOD    1

end timestep


start timestep kper="1" kstp="13" mode="normal"


 CONCENTRATION WILL BE SAVED ON UNIT 7885 AT END OF TIME STEP   13, STRESS PERIOD    1

end timestep


start timestep kper="1" kstp="14" mode="normal"


 CONCENTRATION WILL BE SAVED ON UNIT 7885 AT END OF TIME STEP   14, STRESS PERIOD    1

end timestep


start timestep kper="1" kstp="15" mode="normal"


 CONCENTRATION WILL BE SAVED ON UNIT 7885 AT END OF TIME STEP   15, STRESS PERIOD    1

end timestep


start timestep kper="1" kstp="16" mode="normal"


 CONCENTRATION WILL BE SAVED ON UNIT 7885 AT END OF TIME STEP   16, STRESS PERIOD    1

end timestep


start timestep kper="1" kstp="17" mode="normal"


 CONCENTRATION WILL BE SAVED ON UNIT 7885 AT END OF TIME STEP   17, STRESS PERIOD    1

end timestep


start timestep kper="1" kstp="18" mode="normal"


 CONCENTRATION WILL BE SAVED ON UNIT 7885 AT END OF TIME STEP   18, STRESS PERIOD    1

end timestep


start timestep kper="1" kstp="19" mode="normal"


 CONCENTRATION WILL BE SAVED ON UNIT 7885 AT END OF TIME STEP   19, STRESS PERIOD    1

end timestep


start timestep kper="1" kstp="20" mode="normal"


 CONCENTRATION WILL BE SAVED ON UNIT 7885 AT END OF TIME STEP   20, STRESS PERIOD    1

end timestep


start timestep kper="1" kstp="21" mode="normal"


 CONCENTRATION WILL BE SAVED ON UNIT 7885 AT END OF TIME STEP   21, STRESS PERIOD    1

end timestep


start timestep kper="1" kstp="22" mode="normal"


 CONCENTRATION WILL BE SAVED ON UNIT 7885 AT END OF TIME STEP   22, STRESS PERIOD    1

end timestep


start timestep kper="1" kstp="23" mode="normal"


 CONCENTRATION WILL BE SAVED ON UNIT 7885 AT END OF TIME STEP   23, STRESS PERIOD    1

end timestep


start timestep kper="1" kstp="24" mode="normal"


 CONCENTRATION WILL BE SAVED ON UNIT 7885 AT END OF TIME STEP   24, STRESS PERIOD    1

end timestep


start timestep kper="1" kstp="25" mode="normal"


 CONCENTRATION WILL BE SAVED ON UNIT 7885 AT END OF TIME STEP   25, STRESS PERIOD    1

end timestep


start timestep kper="1" kstp="26" mode="normal"


 CONCENTRATION WILL BE SAVED ON UNIT 7885 AT END OF TIME STEP   26, STRESS PERIOD    1

end timestep


start timestep kper="1" kstp="27" mode="normal"


 CONCENTRATION WILL BE SAVED ON UNIT 7885 AT END OF TIME STEP   27, STRESS PERIOD    1

end timestep


start timestep kper="1" kstp="28" mode="normal"


 CONCENTRATION WILL BE SAVED ON UNIT 7885 AT END OF TIME STEP   28, STRESS PERIOD    1

end timestep


start timestep kper="1" kstp="29" mode="normal"


 CONCENTRATION WILL BE SAVED ON UNIT 7885 AT END OF TIME STEP   29, STRESS PERIOD    1

end timestep


start timestep kper="1" kstp="30" mode="normal"


 CONCENTRATION WILL BE SAVED ON UNIT 7885 AT END OF TIME STEP   30, STRESS PERIOD    1

end timestep


start timestep kper="1" kstp="31" mode="normal"


 CONCENTRATION WILL BE SAVED ON UNIT 7885 AT END OF TIME STEP   31, STRESS PERIOD    1

end timestep


start timestep kper="1" kstp="32" mode="normal"


 CONCENTRATION WILL BE SAVED ON UNIT 7885 AT END OF TIME STEP   32, STRESS PERIOD    1

end timestep


start timestep kper="1" kstp="33" mode="normal"


 CONCENTRATION WILL BE SAVED ON UNIT 7885 AT END OF TIME STEP   33, STRESS PERIOD    1

end timestep


start timestep kper="1" kstp="34" mode="normal"


 CONCENTRATION WILL BE SAVED ON UNIT 7885 AT END OF TIME STEP   34, STRESS PERIOD    1

end timestep


start timestep kper="1" kstp="35" mode="normal"


 CONCENTRATION WILL BE SAVED ON UNIT 7885 AT END OF TIME STEP   35, STRESS PERIOD    1

end timestep


start timestep kper="1" kstp="36" mode="normal"


 CONCENTRATION WILL BE SAVED ON UNIT 7885 AT END OF TIME STEP   36, STRESS PERIOD    1

end timestep


start timestep kper="1" kstp="37" mode="normal"


 CONCENTRATION WILL BE SAVED ON UNIT 7885 AT END OF TIME STEP   37, STRESS PERIOD    1

end timestep


start timestep kper="1" kstp="38" mode="normal"


 CONCENTRATION WILL BE SAVED ON UNIT 7885 AT END OF TIME STEP   38, STRESS PERIOD    1

end timestep


start timestep kper="1" kstp="39" mode="normal"


 CONCENTRATION WILL BE SAVED ON UNIT 7885 AT END OF TIME STEP   39, STRESS PERIOD    1

end timestep


start timestep kper="1" kstp="40" mode="normal"


 CONCENTRATION WILL BE SAVED ON UNIT 7885 AT END OF TIME STEP   40, STRESS PERIOD    1

end timestep


start timestep kper="1" kstp="41" mode="normal"


 CONCENTRATION WILL BE SAVED ON UNIT 7885 AT END OF TIME STEP   41, STRESS PERIOD    1

end timestep


start timestep kper="1" kstp="42" mode="normal"


 CONCENTRATION WILL BE SAVED ON UNIT 7885 AT END OF TIME STEP   42, STRESS PERIOD    1

end timestep


start timestep kper="1" kstp="43" mode="normal"


 CONCENTRATION WILL BE SAVED ON UNIT 7885 AT END OF TIME STEP   43, STRESS PERIOD    1

end timestep


start timestep kper="1" kstp="44" mode="normal"


 CONCENTRATION WILL BE SAVED ON UNIT 7885 AT END OF TIME STEP   44, STRESS PERIOD    1

end timestep


start timestep kper="1" kstp="45" mode="normal"


 CONCENTRATION WILL BE SAVED ON UNIT 7885 AT END OF TIME STEP   45, STRESS PERIOD    1

end timestep


start timestep kper="1" kstp="46" mode="normal"


 CONCENTRATION WILL BE SAVED ON UNIT 7885 AT END OF TIME STEP   46, STRESS PERIOD    1

end timestep


start timestep kper="1" kstp="47" mode="normal"


 CONCENTRATION WILL BE SAVED ON UNIT 7885 AT END OF TIME STEP   47, STRESS PERIOD    1

end timestep


start timestep kper="1" kstp="48" mode="normal"


 CONCENTRATION WILL BE SAVED ON UNIT 7885 AT END OF TIME STEP   48, STRESS PERIOD    1

end timestep


start timestep kper="1" kstp="49" mode="normal"


 CONCENTRATION WILL BE SAVED ON UNIT 7885 AT END OF TIME STEP   49, STRESS PERIOD    1

end timestep


start timestep kper="1" kstp="50" mode="normal"


 CONCENTRATION WILL BE SAVED ON UNIT 7885 AT END OF TIME STEP   50, STRESS PERIOD    1

end timestep


start timestep kper="1" kstp="51" mode="normal"


 CONCENTRATION WILL BE SAVED ON UNIT 7885 AT END OF TIME STEP   51, STRESS PERIOD    1

end timestep


start timestep kper="1" kstp="52" mode="normal"


 CONCENTRATION WILL BE SAVED ON UNIT 7885 AT END OF TIME STEP   52, STRESS PERIOD    1

end timestep


start timestep kper="1" kstp="53" mode="normal"


 CONCENTRATION WILL BE SAVED ON UNIT 7885 AT END OF TIME STEP   53, STRESS PERIOD    1

end timestep


start timestep kper="1" kstp="54" mode="normal"


 CONCENTRATION WILL BE SAVED ON UNIT 7885 AT END OF TIME STEP   54, STRESS PERIOD    1

end timestep


start timestep kper="1" kstp="55" mode="normal"


 CONCENTRATION WILL BE SAVED ON UNIT 7885 AT END OF TIME STEP   55, STRESS PERIOD    1

end timestep


start timestep kper="1" kstp="56" mode="normal"


 CONCENTRATION WILL BE SAVED ON UNIT 7885 AT END OF TIME STEP   56, STRESS PERIOD    1

end timestep


start timestep kper="1" kstp="57" mode="normal"


 CONCENTRATION WILL BE SAVED ON UNIT 7885 AT END OF TIME STEP   57, STRESS PERIOD    1

end timestep


start timestep kper="1" kstp="58" mode="normal"


 CONCENTRATION WILL BE SAVED ON UNIT 7885 AT END OF TIME STEP   58, STRESS PERIOD    1

end timestep


start timestep kper="1" kstp="59" mode="normal"


 CONCENTRATION WILL BE SAVED ON UNIT 7885 AT END OF TIME STEP   59, STRESS PERIOD    1

end timestep


start timestep kper="1" kstp="60" mode="normal"


 CONCENTRATION WILL BE SAVED ON UNIT 7885 AT END OF TIME STEP   60, STRESS PERIOD    1

end timestep


start timestep kper="1" kstp="61" mode="normal"


 CONCENTRATION WILL BE SAVED ON UNIT 7885 AT END OF TIME STEP   61, STRESS PERIOD    1

end timestep


start timestep kper="1" kstp="62" mode="normal"


 CONCENTRATION WILL BE SAVED ON UNIT 7885 AT END OF TIME STEP   62, STRESS PERIOD    1

end timestep


start timestep kper="1" kstp="63" mode="normal"


 CONCENTRATION WILL BE SAVED ON UNIT 7885 AT END OF TIME STEP   63, STRESS PERIOD    1

end timestep


start timestep kper="1" kstp="64" mode="normal"


 CONCENTRATION WILL BE SAVED ON UNIT 7885 AT END OF TIME STEP   64, STRESS PERIOD    1

end timestep


start timestep kper="1" kstp="65" mode="normal"


 CONCENTRATION WILL BE SAVED ON UNIT 7885 AT END OF TIME STEP   65, STRESS PERIOD    1

end timestep


start timestep kper="1" kstp="66" mode="normal"


 CONCENTRATION WILL BE SAVED ON UNIT 7885 AT END OF TIME STEP   66, STRESS PERIOD    1

end timestep


start timestep kper="1" kstp="67" mode="normal"


 CONCENTRATION WILL BE SAVED ON UNIT 7885 AT END OF TIME STEP   67, STRESS PERIOD    1

end timestep


start timestep kper="1" kstp="68" mode="normal"


 CONCENTRATION WILL BE SAVED ON UNIT 7885 AT END OF TIME STEP   68, STRESS PERIOD    1

end timestep


start timestep kper="1" kstp="69" mode="normal"


 CONCENTRATION WILL BE SAVED ON UNIT 7885 AT END OF TIME STEP   69, STRESS PERIOD    1

end timestep


start timestep kper="1" kstp="70" mode="normal"


 CONCENTRATION WILL BE SAVED ON UNIT 7885 AT END OF TIME STEP   70, STRESS PERIOD    1

end timestep


start timestep kper="1" kstp="71" mode="normal"


 CONCENTRATION WILL BE SAVED ON UNIT 7885 AT END OF TIME STEP   71, STRESS PERIOD    1

end timestep


start timestep kper="1" kstp="72" mode="normal"


 CONCENTRATION WILL BE SAVED ON UNIT 7885 AT END OF TIME STEP   72, STRESS PERIOD    1

end timestep


start timestep kper="1" kstp="73" mode="normal"


 CONCENTRATION WILL BE SAVED ON UNIT 7885 AT END OF TIME STEP   73, STRESS PERIOD    1

end timestep


start timestep kper="1" kstp="74" mode="normal"


 CONCENTRATION WILL BE SAVED ON UNIT 7885 AT END OF TIME STEP   74, STRESS PERIOD    1

end timestep


start timestep kper="1" kstp="75" mode="normal"


 CONCENTRATION WILL BE SAVED ON UNIT 7885 AT END OF TIME STEP   75, STRESS PERIOD    1

end timestep


start timestep kper="1" kstp="76" mode="normal"


 CONCENTRATION WILL BE SAVED ON UNIT 7885 AT END OF TIME STEP   76, STRESS PERIOD    1

end timestep


start timestep kper="1" kstp="77" mode="normal"


 CONCENTRATION WILL BE SAVED ON UNIT 7885 AT END OF TIME STEP   77, STRESS PERIOD    1

end timestep


start timestep kper="1" kstp="78" mode="normal"


 CONCENTRATION WILL BE SAVED ON UNIT 7885 AT END OF TIME STEP   78, STRESS PERIOD    1

end timestep


start timestep kper="1" kstp="79" mode="normal"


 CONCENTRATION WILL BE SAVED ON UNIT 7885 AT END OF TIME STEP   79, STRESS PERIOD    1

end timestep


start timestep kper="1" kstp="80" mode="normal"


 CONCENTRATION WILL BE SAVED ON UNIT 7885 AT END OF TIME STEP   80, STRESS PERIOD    1

end timestep


start timestep kper="1" kstp="81" mode="normal"


 CONCENTRATION WILL BE SAVED ON UNIT 7885 AT END OF TIME STEP   81, STRESS PERIOD    1

end timestep


start timestep kper="1" kstp="82" mode="normal"


 CONCENTRATION WILL BE SAVED ON UNIT 7885 AT END OF TIME STEP   82, STRESS PERIOD    1

end timestep


start timestep kper="1" kstp="83" mode="normal"


 CONCENTRATION WILL BE SAVED ON UNIT 7885 AT END OF TIME STEP   83, STRESS PERIOD    1

end timestep


start timestep kper="1" kstp="84" mode="normal"


 CONCENTRATION WILL BE SAVED ON UNIT 7885 AT END OF TIME STEP   84, STRESS PERIOD    1

end timestep


start timestep kper="1" kstp="85" mode="normal"


 CONCENTRATION WILL BE SAVED ON UNIT 7885 AT END OF TIME STEP   85, STRESS PERIOD    1

end timestep


start timestep kper="1" kstp="86" mode="normal"


 CONCENTRATION WILL BE SAVED ON UNIT 7885 AT END OF TIME STEP   86, STRESS PERIOD    1

end timestep


start timestep kper="1" kstp="87" mode="normal"


 CONCENTRATION WILL BE SAVED ON UNIT 7885 AT END OF TIME STEP   87, STRESS PERIOD    1

end timestep


start timestep kper="1" kstp="88" mode="normal"


 CONCENTRATION WILL BE SAVED ON UNIT 7885 AT END OF TIME STEP   88, STRESS PERIOD    1

end timestep


start timestep kper="1" kstp="89" mode="normal"


 CONCENTRATION WILL BE SAVED ON UNIT 7885 AT END OF TIME STEP   89, STRESS PERIOD    1

end timestep


start timestep kper="1" kstp="90" mode="normal"


 CONCENTRATION WILL BE SAVED ON UNIT 7885 AT END OF TIME STEP   90, STRESS PERIOD    1

end timestep


start timestep kper="1" kstp="91" mode="normal"


 CONCENTRATION WILL BE SAVED ON UNIT 7885 AT END OF TIME STEP   91, STRESS PERIOD    1

end timestep


start timestep kper="1" kstp="92" mode="normal"


 CONCENTRATION WILL BE SAVED ON UNIT 7885 AT END OF TIME STEP   92, STRESS PERIOD    1

end timestep


start timestep kper="1" kstp="93" mode="normal"


 CONCENTRATION WILL BE SAVED ON UNIT 7885 AT END OF TIME STEP   93, STRESS PERIOD    1

end timestep


start timestep kper="1" kstp="94" mode="normal"


 CONCENTRATION WILL BE SAVED ON UNIT 7885 AT END OF TIME STEP   94, STRESS PERIOD    1

end timestep


start timestep kper="1" kstp="95" mode="normal"


 CONCENTRATION WILL BE SAVED ON UNIT 7885 AT END OF TIME STEP   95, STRESS PERIOD    1

end timestep


start timestep kper="1" kstp="96" mode="normal"


 CONCENTRATION WILL BE SAVED ON UNIT 7885 AT END OF TIME STEP   96, STRESS PERIOD    1

end timestep


start timestep kper="1" kstp="97" mode="normal"


 CONCENTRATION WILL BE SAVED ON UNIT 7885 AT END OF TIME STEP   97, STRESS PERIOD    1

end timestep


start timestep kper="1" kstp="98" mode="normal"


 CONCENTRATION WILL BE SAVED ON UNIT 7885 AT END OF TIME STEP   98, STRESS PERIOD    1

end timestep


start timestep kper="1" kstp="99" mode="normal"


 CONCENTRATION WILL BE SAVED ON UNIT 7885 AT END OF TIME STEP   99, STRESS PERIOD    1

end timestep


start timestep kper="1" kstp="100" mode="normal"

1
  CONCENTRATION IN LAYER   1 AT END OF TIME STEP 100 IN STRESS PERIOD    1
  ---------------------------------------------------------------------------

                1               2               3               4               5               6               7               8               9              10
               11              12              13              14              15              16              17              18              19              20
               21              22              23              24              25
 ................................................................................................................................................................
   1  1.935666707     1.914704363     1.910555258     1.911643313     1.912695732     1.913378341     1.913952595     1.914441441     1.914951719     1.915334422    
      1.915603908     1.915785620     1.915927957     1.916056346     1.916182409     1.916329790     1.916494205     1.916678443     1.916887265     1.917124144    
      1.917391283     1.917689971     1.918020041     1.918376166     1.918731012    
1
  CONCENTRATION IN LAYER   2 AT END OF TIME STEP 100 IN STRESS PERIOD    1
  ---------------------------------------------------------------------------

                1               2               3               4               5               6               7               8               9              10
               11              12              13              14              15              16              17              18              19              20
               21              22              23              24              25
 ................................................................................................................................................................
   1  1.936294699     1.916140179     1.911698966     1.912407776     1.913199679     1.913690082     1.914228174     1.914648933     1.915090368     1.915431162    
      1.915671466     1.915834556     1.915963561     1.916082148     1.916200702     1.916342733     1.916503376     1.916684988     1.916891952     1.917127495    
      1.917393671     1.917691668     1.918021246     1.918377003     1.918731620    
1
  CONCENTRATION IN LAYER   3 AT END OF TIME STEP 100 IN STRESS PERIOD    1
  ---------------------------------------------------------------------------

                1               2               3               4               5               6               7               8               9              10
               11              12              13              14              15              16              17              18              19              20
               21              22              23              24              25
 ................................................................................................................................................................
   1  1.935462093     1.918294357     1.913706100     1.913769303     1.914123669     1.914430261     1.914778715     1.915041622     1.915353762     1.915615518    
      1.915800562     1.915927980     1.916031401     1.916131159     1.916235799     1.916367318     1.916520766     1.916697420     1.916900863     1.917133868    
      1.917398210     1.917694890     1.918023536     1.918378617     1.918732777    
1
  CONCENTRATION IN LAYER   4 AT END OF TIME STEP 100 IN STRESS PERIOD    1
  ---------------------------------------------------------------------------

                1               2               3               4               5               6               7               8               9              10
               11              12              13              14              15              16              17              18              19              20
               21              22              23              24              25
 ................................................................................................................................................................
   1  1.925831320     1.919911488     1.916135125     1.915423399     1.915350222     1.915376088     1.915495529     1.915570324     1.915718436     1.915870405    
      1.915979646     1.916057285     1.916125001     1.916198691     1.916284512     1.916401117     1.916544614     1.916714496     1.916913122     1.917142640    
      1.917404460     1.917699333     1.918026679     1.918380846     1.918734371    
1
  CONCENTRATION IN LAYER   5 AT END OF TIME STEP 100 IN STRESS PERIOD    1
  ---------------------------------------------------------------------------

                1               2               3               4               5               6               7               8               9              10
               11              12              13              14              15              16              17              18              19              20
               21              22              23              24              25
 ................................................................................................................................................................
   1  1.925831320     1.921750020     1.918472098     1.917172007     1.916735619     1.916434858     1.916289853     1.916166502     1.916151299     1.916171428    
      1.916192012     1.916210144     1.916235276     1.916278452     1.916342213     1.916440863     1.916572551     1.916734524     1.916927525     1.917152955    
      1.917411813     1.917704556     1.918030375     1.918383468     1.918736246    
1
  CONCENTRATION IN LAYER   6 AT END OF TIME STEP 100 IN STRESS PERIOD    1
  ---------------------------------------------------------------------------

                1               2               3               4               5               6               7               8               9              10
               11              12              13              14              15              16              17              18              19              20
               21              22              23              24              25
 ................................................................................................................................................................
   1  1.925831320     1.923265009     1.920482421     1.918839651     1.918098154     1.917500297     1.917094389     1.916780281     1.916594785     1.916488439    
      1.916416403     1.916370971     1.916351195     1.916363255     1.916403673     1.916482668     1.916601783     1.916755523     1.916942662     1.917163806    
      1.917419549     1.917710046     1.918034264     1.918386228     1.918738218    
1
  CONCENTRATION IN LAYER   7 AT END OF TIME STEP 100 IN STRESS PERIOD    1
  ---------------------------------------------------------------------------

                1               2               3               4               5               6               7               8               9              10
               11              12              13              14              15              16              17              18              19              20
               21              22              23              24              25
 ................................................................................................................................................................
   1  1.925831320     1.924251445     1.922223366     1.920465871     1.919335774     1.918473657     1.917840005     1.917350752     1.917012742     1.916788552    
      1.916630779     1.916521716     1.916461301     1.916444725     1.916463667     1.916522452     1.916629400     1.916775434     1.916957055     1.917174133    
      1.917426910     1.917715268     1.918037967     1.918388855     1.918740095    
1
  CONCENTRATION IN LAYER   8 AT END OF TIME STEP 100 IN STRESS PERIOD    1
  ---------------------------------------------------------------------------

                1               2               3               4               5               6               7               8               9              10
               11              12              13              14              15              16              17              18              19              20
               21              22              23              24              25
 ................................................................................................................................................................
   1  1.925831320     1.924826427     1.923295244     1.921633925     1.920326836     1.919275096     1.918462166     1.917827832     1.917365758     1.917043132    
      1.916813027     1.916650527     1.916551840     1.916515733     1.916516176     1.916556184     1.916652708     1.916792328     1.916969300     1.917182925    
      1.917433173     1.917719711     1.918041118     1.918391091     1.918741692    
1
  CONCENTRATION IN LAYER   9 AT END OF TIME STEP 100 IN STRESS PERIOD    1
  ---------------------------------------------------------------------------

                1               2               3               4               5               6               7               8               9              10
               11              12              13              14              15              16              17              18              19              20
               21              22              23              24              25
 ................................................................................................................................................................
   1  1.925831320     1.925138541     1.923914322     1.922385762     1.921009366     1.919842722     1.918908052     1.918170566     1.917620962     1.917227742    
      1.916945309     1.916744401     1.916615803     1.916569784     1.916553329     1.916581002     1.916669635     1.916804585     1.916978201     1.917189320    
      1.917437726     1.917722940     1.918043408     1.918392718     1.918742852    
1
  CONCENTRATION IN LAYER  10 AT END OF TIME STEP 100 IN STRESS PERIOD    1
  ---------------------------------------------------------------------------

                1               2               3               4               5               6               7               8               9              10
               11              12              13              14              15              16              17              18              19              20
               21              22              23              24              25
 ................................................................................................................................................................
   1  1.925831320     1.925274826     1.924197827     1.922753151     1.921355531     1.920136265     1.919140552     1.918349615     1.917754737     1.917324699    
      1.917014811     1.916793824     1.916649448     1.916597990     1.916572916     1.916594232     1.916678515     1.916811018     1.916982887     1.917192692    
      1.917440127     1.917724639     1.918044610     1.918393572     1.918743462    

 CONCENTRATION WILL BE SAVED ON UNIT 7885 AT END OF TIME STEP  100, STRESS PERIOD    1


  MASS BUDGET FOR ENTIRE MODEL AT END OF TIME STEP  100, STRESS PERIOD   1
  ---------------------------------------------------------------------------------------------------

     CUMULATIVE MASS      M       RATES FOR THIS TIME STEP      M/T          PACKAGE NAME    
     ------------------                 ------------------------                     ----------------

           IN:                                      IN:
           ---                                      ---
     STORAGE-AQUEOUS =           2.7992       STORAGE-AQUEOUS =       5.2675E-04     MST                              
                 CHD =           0.0000                   CHD =           0.0000     SSM_CHD                          
                 CHD =         256.6389                   CHD =           0.1296     SSM_CHDTAIL                      
                 CNC =         556.4804                   CNC =           0.2811     CNC                              

            TOTAL IN =         815.9184              TOTAL IN =           0.4112

          OUT:                                     OUT:
          ----                                     ----
     STORAGE-AQUEOUS =          20.7390       STORAGE-AQUEOUS =       1.0667E-02     MST                              
                 CHD =         793.6629                   CHD =           0.3997     SSM_CHD                          
                 CHD =           0.0000                   CHD =           0.0000     SSM_CHDTAIL                      
                 CNC =           1.5165                   CNC =       8.0256E-04     CNC                              

           TOTAL OUT =         815.9184             TOTAL OUT =           0.4112

            IN - OUT =       1.6716E-06              IN - OUT =       1.1060E-09

 PERCENT DISCREPANCY =           0.00     PERCENT DISCREPANCY =           0.00




         TIME SUMMARY AT END OF TIME STEP  100 IN STRESS PERIOD    1
                    SECONDS     MINUTES      HOURS       DAYS        YEARS
                    -----------------------------------------------------------
   TIME STEP LENGTH 1.72800E+06  28800.      480.00      20.000     5.47570E-02
 STRESS PERIOD TIME 1.72800E+08 2.88000E+06  48000.      2000.0      5.4757    
         TOTAL TIME 1.72800E+08 2.88000E+06  48000.      2000.0      5.4757    


end timestep

