                                   MODFLOW 6
                U.S. GEOLOGICAL SURVEY MODULAR HYDROLOGIC MODEL
                       GROUNDWATER TRANSPORT MODEL (GWT)
                VERSION 6.5.0.dev0+prt (preliminary) 10/07/2023
                               ***DEVELOP MODE***

   MODFLOW 6 compiled Oct 07 2023 02:19:02 with Intel(R) Fortran Intel(R) 64
   Compiler Classic for applications running on Intel(R) 64, Version 2021.7.0
                             Build 20220726_000000

This software is preliminary or provisional and is subject to 
revision. It is being provided to meet the need for timely best 
science. The software has not received final approval by the U.S. 
Geological Survey (USGS). No warranty, expressed or implied, is made 
by the USGS or the U.S. Government as to the functionality of the 
software and related material nor shall the fact of release 
constitute any such warranty. The software is provided on the 
condition that neither the USGS nor the U.S. Government shall be held 
liable for any damages resulting from the authorized or unauthorized 
use of the software.


As a work of the United States Government, this USGS product is 
in the public domain within the United States. You can copy, 
modify, distribute, and perform the work, even for commercial 
purposes, all without asking permission. Additionally, USGS 
waives copyright and related rights in the work worldwide 
through CC0 1.0 Universal Public Domain Dedication 
(https://creativecommons.org/publicdomain/zero/1.0/).

The following GNU Lesser General Public License (LGPL) libraries
are used in this USGS product:

    SPARSKIT version 2.0
      ilut, luson, and qsplit 
      (https://www-users.cse.umn.edu/~saad/software/SPARSKIT/)

    RCM - Reverse Cuthill McKee Ordering
      (https://people.math.sc.edu/Burkardt/f_src/rcm/rcm.html)

    BLAS - Basic Linear Algebra Subprograms Level 1
      (https://people.math.sc.edu/Burkardt/f_src/blas1_d/blas1_d.html)

    SPARSEKIT - Sparse Matrix Utility Package
      amux, dperm, dvperm, rperm, and cperm
      (https://people.sc.fsu.edu/~jburkardt/f77_src/sparsekit/sparsekit.html)

The following BSD-3 License libraries are used in this USGS product:

    Modern Fortran DAG Library
      Copyright (c) 2018, Jacob Williams
      All rights reserved.
      (https://github.com/jacobwilliams/daglib)

MODFLOW 6 compiler options: /Isrc\libmf6core.a.p /Isrc /I..\src
/Isrc\libmf6_external.a.p /MTd /nologo /warn:general /warn:truncated_source
/stand:f08 /Zi /traceback /O2 /fpe:0 /heap-arrays:0 /traceback /fpp
/Qdiag-disable:7416 /Qdiag-disable:7025 /Qdiag-disable:5268
/Fdsrc\libmf6core.a.p\Utilities_compilerversion.F90.pdb
/module:src\libmf6core.a.p
/Fosrc/libmf6core.a.p/Utilities_compilerversion.F90.obj /c

System command used to initiate simulation:
c:\Users\portega\anaconda3\envs\mf6rtm\python.exe -m ipykernel_launcher --f=c:\Users\portega\AppData\Roaming\jupyter\runtime\kernel-v2-17404iCBvKc1FbHvz.json

MODFLOW was compiled using uniform precision.

Real Variables
  KIND: 8
  TINY (smallest non-zero value):    2.225074-308
  HUGE (largest value):    1.797693+308
  PRECISION: 15
  SIZE IN BITS: 64

Integer Variables
  KIND: 4
  HUGE (largest value): 2147483647
  SIZE IN BITS: 32

Long Integer Variables
  KIND: 8
  HUGE (largest value): 9223372036854775807
  SIZE IN BITS: 64

Logical Variables
  KIND: 4
  SIZE IN BITS: 32
 
 NAMEFILE OPTIONS:
 END NAMEFILE OPTIONS:

 DIS -- STRUCTURED GRID DISCRETIZATION PACKAGE, VERSION 2 : 3/27/2014 - INPUT READ FROM MEMPATH: __INPUT__/SI/DIS                                  


 DSP-- DISPERSION PACKAGE, VERSION 1, 1/24/2018 INPUT READ FROM MEMPATH: __INPUT__/SI/DSP                                  


 Setting Discretization Options
    Model length unit [0=UND, 1=FEET, 2=METERS, 3=CENTIMETERS] set as 2
 End Setting Discretization Options

 Setting Discretization Dimensions
    NLAY = 10
    NROW = 1
    NCOL = 25
 End Setting Discretization Dimensions

 Setting Discretization Griddata
    DELR set from input file
    DELC set from input file
    TOP set from input file
    BOTM set from input file
    IDOMAIN set from input file
 End Setting Discretization Griddata


 FMI -- FLOW MODEL INTERFACE,' VERSION 2, 8/17/2023
  FLOWS PROVIDED BY A GWF MODEL IN THIS SIMULATION

 ADV-- ADVECTION PACKAGE, VERSION 1, 8/25/2017 INPUT READ FROM UNIT 6460


 # File generated by Flopy version 3.5.0.dev0 on 07/12/2024 at 09:44:05.
 PROCESSING ADVECTION OPTIONS
    ADVECTION WEIGHTING SCHEME HAS BEEN SET TO: TVD
 END OF ADVECTION OPTIONS
 Setting DSP Options
    XT3D formulation [0=INACTIVE, 1=ACTIVE, 3=ACTIVE RHS] set to: 0
 End Setting DSP Options

 Setting DSP Griddata
    ALH set from input file
    ATH1 set from input file
    ATV set from input file
 End Setting DSP Griddata


 CNC   -- CNC PACKAGE, VERSION 8, 2/22/2014 INPUT READ FROM UNIT 6494
 # File generated by Flopy version 3.5.0.dev0 on 07/12/2024 at 09:44:05.

 PROCESSING CNC OPTIONS
    CNC FLOWS WILL BE PRINTED TO LISTING FILE.
    FLOWS WILL BE SAVED TO BUDGET FILE SPECIFIED IN OUTPUT CONTROL
 END OF CNC OPTIONS

 PROCESSING CNC DIMENSIONS
    MAXBOUND =       7
 END OF CNC DIMENSIONS

 IC -- INITIAL CONDITIONS PACKAGE, VERSION 8, 3/28/2015 INPUT READ FROM UNIT 6458
 # File generated by Flopy version 3.5.0.dev0 on 07/12/2024 at 09:44:05.
 PROCESSING GRIDDATA

 OPENED Si.ic_strt_layer1.txt
 FILE TYPE:OPEN/CLOSE   UNIT 6712   STATUS:OLD                 
 FORMAT:FORMATTED              ACCESS:SEQUENTIAL          
 ACTION:READ                


 OPENED Si.ic_strt_layer2.txt
 FILE TYPE:OPEN/CLOSE   UNIT 6713   STATUS:OLD                 
 FORMAT:FORMATTED              ACCESS:SEQUENTIAL          
 ACTION:READ                


 OPENED Si.ic_strt_layer3.txt
 FILE TYPE:OPEN/CLOSE   UNIT 6714   STATUS:OLD                 
 FORMAT:FORMATTED              ACCESS:SEQUENTIAL          
 ACTION:READ                


 OPENED Si.ic_strt_layer4.txt
 FILE TYPE:OPEN/CLOSE   UNIT 6715   STATUS:OLD                 
 FORMAT:FORMATTED              ACCESS:SEQUENTIAL          
 ACTION:READ                


 OPENED Si.ic_strt_layer5.txt
 FILE TYPE:OPEN/CLOSE   UNIT 6716   STATUS:OLD                 
 FORMAT:FORMATTED              ACCESS:SEQUENTIAL          
 ACTION:READ                


 OPENED Si.ic_strt_layer6.txt
 FILE TYPE:OPEN/CLOSE   UNIT 6717   STATUS:OLD                 
 FORMAT:FORMATTED              ACCESS:SEQUENTIAL          
 ACTION:READ                


 OPENED Si.ic_strt_layer7.txt
 FILE TYPE:OPEN/CLOSE   UNIT 6718   STATUS:OLD                 
 FORMAT:FORMATTED              ACCESS:SEQUENTIAL          
 ACTION:READ                


 OPENED Si.ic_strt_layer8.txt
 FILE TYPE:OPEN/CLOSE   UNIT 6719   STATUS:OLD                 
 FORMAT:FORMATTED              ACCESS:SEQUENTIAL          
 ACTION:READ                


 OPENED Si.ic_strt_layer9.txt
 FILE TYPE:OPEN/CLOSE   UNIT 6720   STATUS:OLD                 
 FORMAT:FORMATTED              ACCESS:SEQUENTIAL          
 ACTION:READ                


 OPENED Si.ic_strt_layer10.txt
 FILE TYPE:OPEN/CLOSE   UNIT 6721   STATUS:OLD                 
 FORMAT:FORMATTED              ACCESS:SEQUENTIAL          
 ACTION:READ                

 END PROCESSING GRIDDATA

 MST -- MOBILE STORAGE AND TRANSFER PACKAGE, VERSION 1, 7/29/2020 INPUT READ FROM UNIT 6459


 # File generated by Flopy version 3.5.0.dev0 on 07/12/2024 at 09:44:05.
 PROCESSING MOBILE STORAGE AND TRANSFER OPTIONS
 END OF MOBILE STORAGE AND TRANSFER OPTIONS
 PROCESSING GRIDDATA

 OPENED Si.mst_porosity.txt
 FILE TYPE:OPEN/CLOSE   UNIT 6722   STATUS:OLD                 
 FORMAT:FORMATTED              ACCESS:SEQUENTIAL          
 ACTION:READ                

 END PROCESSING GRIDDATA

 SSM -- SOURCE-SINK MIXING PACKAGE, VERSION 1, 8/25/2017 INPUT READ FROM UNIT 6492


 # File generated by Flopy version 3.5.0.dev0 on 07/12/2024 at 09:44:05.
 PROCESSING SSM OPTIONS
    SSM FLOW INFORMATION WILL BE PRINTED TO LISTING FILE WHENEVER ICBCFL IS NOT ZERO.
    CELL-BY-CELL FLOW INFORMATION WILL BE SAVED TO BINARY FILE WHENEVER ICBCFL IS NOT ZERO.
 END OF SSM OPTIONS

 OPENED Si.ssm_sources.txt
 FILE TYPE:OPEN/CLOSE   UNIT 6723   STATUS:OLD                 
 FORMAT:FORMATTED              ACCESS:SEQUENTIAL          
 ACTION:READ                

 PROCESSING SOURCES
 AUX SOURCE DETECTED.
    USING AUX COLUMN 14 IN PACKAGE CHD
 END PROCESSING SOURCES
 OPTIONAL FILEINPUT BLOCK NOT FOUND.  CONTINUING.
      THE LAST TIME STEP WILL BE PRINTED
      THE LAST TIME STEP WILL BE PRINTED
 # File generated by Flopy version 3.5.0.dev0 on 07/12/2024 at 09:44:05.

 PROCESSING OC OPTIONS

    BUDGET INFORMATION WILL BE WRITTEN TO:
      UNIT NUMBER: 6724
      FILE NAME: Si.cbb

 OPENED Si.cbb
 FILE TYPE:DATA(BINARY)   UNIT 6724   STATUS:REPLACE             
 FORMAT:UNFORMATTED            ACCESS:STREAM              
 ACTION:READWRITE           

    CONCENTRATION INFORMATION WILL BE WRITTEN TO:
      UNIT NUMBER: 6725
      FILE NAME: Si.ucn

 OPENED Si.ucn
 FILE TYPE:DATA(BINARY)   UNIT 6725   STATUS:REPLACE             
 FORMAT:UNFORMATTED            ACCESS:STREAM              
 ACTION:READWRITE           

 END OF OC OPTIONS

start timestep kper="1" kstp="1" mode="normal"


 BEGIN READING OUTPUT CONTROL FOR STRESS PERIOD 1
      ALL TIME STEPS WILL BE SAVED
      ALL TIME STEPS WILL BE SAVED
      ALL TIME STEPS WILL BE PRINTED
      ALL TIME STEPS WILL BE PRINTED

 END READING OUTPUT CONTROL FOR STRESS PERIOD 1

 OPENED Si.cnc_stress_period_data_1.txt
 FILE TYPE:OPEN/CLOSE   UNIT 6739   STATUS:OLD                 
 FORMAT:FORMATTED              ACCESS:SEQUENTIAL          
 ACTION:READ                

 UBDSV06 SAVING  SOURCE-SINK MIX IN MODEL SI               PACKAGE SI              CONNECTED TO MODEL SI               PACKAGE SSM              ON UNIT   6724 AT TIME STEP      1, STRESS PERIOD      1
 UBDSV06 SAVING              CNC IN MODEL SI               PACKAGE SI              CONNECTED TO MODEL SI               PACKAGE CNC              ON UNIT   6724 AT TIME STEP      1, STRESS PERIOD      1

 SSM PACKAGE (SSM) FLOW RATES   PERIOD      1   STEP        1
 ------------------------------------------------------------------------------------------------
   NUMBER   CELLID                   BOUND Q        SSM CONC          RATE         PACKAGE NAME  
 ------------------------------------------------------------------------------------------------
     1      (1,1,1)               2.08333361E-02  2.0738495       4.32052030E-02       CHD       
     2      (2,1,1)               2.08333361E-02  2.0738495       4.32052031E-02       CHD       
     3      (3,1,1)               2.08333361E-02  2.0738495       4.32052031E-02       CHD       
     4      (4,1,1)               0.0000000       0.0000000       0.0000000            CHD       
     5      (5,1,1)               0.0000000       0.0000000       0.0000000            CHD       
     6      (6,1,1)               0.0000000       0.0000000       0.0000000            CHD       
     7      (7,1,1)               0.0000000       0.0000000       0.0000000            CHD       
     8      (8,1,1)               0.0000000       0.0000000       0.0000000            CHD       
     9      (9,1,1)               0.0000000       0.0000000       0.0000000            CHD       
     10     (10,1,1)              0.0000000       0.0000000       0.0000000            CHD       
     11     (1,1,25)             -2.08333402E-02  1.9258313      -4.01214990E-02       CHD       
     12     (2,1,25)             -2.08333402E-02  1.9258313      -4.01214990E-02       CHD       
     13     (3,1,25)             -2.08333402E-02  1.9258313      -4.01214990E-02       CHD       
     14     (4,1,25)             -2.08333403E-02  1.9258313      -4.01214991E-02       CHD       
     15     (5,1,25)             -2.08333403E-02  1.9258313      -4.01214991E-02       CHD       
     16     (6,1,25)             -2.08333403E-02  1.9258313      -4.01214991E-02       CHD       
     17     (7,1,25)             -2.08333403E-02  1.9258313      -4.01214991E-02       CHD       
     18     (8,1,25)             -2.08333403E-02  1.9258313      -4.01214991E-02       CHD       
     19     (9,1,25)             -2.08333403E-02  1.9258313      -4.01214991E-02       CHD       
     20     (10,1,25)            -2.08333403E-02  1.9258313      -4.01214991E-02       CHD       
 ------------------------------------------------------------------------------------------------




 CNC PACKAGE (CNC) FLOW RATES   PERIOD      1   STEP        1
 -----------------------------------------------
   NUMBER   CELLID                    RATE      
 -----------------------------------------------
     1      (4,1,1)               3.92248617E-02
     2      (5,1,1)               4.03830861E-02
     3      (6,1,1)               4.03842815E-02
     4      (7,1,1)               4.03847748E-02
     5      (8,1,1)               4.03849776E-02
     6      (9,1,1)               4.03850593E-02
     7      (10,1,1)              4.03850881E-02
 -----------------------------------------------



1
  CONCENTRATION IN LAYER   1 AT END OF TIME STEP   1 IN STRESS PERIOD    1
  ---------------------------------------------------------------------------

                1               2               3               4               5               6               7               8               9              10
               11              12              13              14              15              16              17              18              19              20
               21              22              23              24              25
 ................................................................................................................................................................
   1  1.942851346     1.928996001     1.926155587     1.925862119     1.925834269     1.925831611     1.925831342     1.925831314     1.925831317     1.925831324    
      1.925831324     1.925831318     1.925831311     1.925831309     1.925831310     1.925831311     1.925831310     1.925831309     1.925831308     1.925831308    
      1.925831310     1.925831311     1.925831313     1.925831315     1.925831316    
1
  CONCENTRATION IN LAYER   2 AT END OF TIME STEP   1 IN STRESS PERIOD    1
  ---------------------------------------------------------------------------

                1               2               3               4               5               6               7               8               9              10
               11              12              13              14              15              16              17              18              19              20
               21              22              23              24              25
 ................................................................................................................................................................
   1  1.942054952     1.928813011     1.926139338     1.925860954     1.925834194     1.925831610     1.925831341     1.925831311     1.925831317     1.925831329    
      1.925831329     1.925831319     1.925831308     1.925831304     1.925831305     1.925831307     1.925831307     1.925831304     1.925831303     1.925831304    
      1.925831306     1.925831309     1.925831311     1.925831315     1.925831316    
1
  CONCENTRATION IN LAYER   3 AT END OF TIME STEP   1 IN STRESS PERIOD    1
  ---------------------------------------------------------------------------

                1               2               3               4               5               6               7               8               9              10
               11              12              13              14              15              16              17              18              19              20
               21              22              23              24              25
 ................................................................................................................................................................
   1  1.939809011     1.928426577     1.926110201     1.925858935     1.925834059     1.925831607     1.925831338     1.925831305     1.925831319     1.925831338    
      1.925831338     1.925831321     1.925831302     1.925831296     1.925831299     1.925831303     1.925831301     1.925831297     1.925831295     1.925831297    
      1.925831300     1.925831305     1.925831309     1.925831314     1.925831315    
1
  CONCENTRATION IN LAYER   4 AT END OF TIME STEP   1 IN STRESS PERIOD    1
  ---------------------------------------------------------------------------

                1               2               3               4               5               6               7               8               9              10
               11              12              13              14              15              16              17              18              19              20
               21              22              23              24              25
 ................................................................................................................................................................
   1  1.934263440     1.927886835     1.926077525     1.925856616     1.925833891     1.925831599     1.925831334     1.925831300     1.925831320     1.925831347    
      1.925831346     1.925831323     1.925831297     1.925831289     1.925831295     1.925831299     1.925831297     1.925831292     1.925831289     1.925831291    
      1.925831296     1.925831302     1.925831307     1.925831313     1.925831315    
1
  CONCENTRATION IN LAYER   5 AT END OF TIME STEP   1 IN STRESS PERIOD    1
  ---------------------------------------------------------------------------

                1               2               3               4               5               6               7               8               9              10
               11              12              13              14              15              16              17              18              19              20
               21              22              23              24              25
 ................................................................................................................................................................
   1  1.934263440     1.927664361     1.926051311     1.925854444     1.925833719     1.925831586     1.925831330     1.925831297     1.925831320     1.925831352    
      1.925831351     1.925831324     1.925831294     1.925831286     1.925831292     1.925831298     1.925831295     1.925831289     1.925831285     1.925831287    
      1.925831293     1.925831300     1.925831305     1.925831313     1.925831315    
1
  CONCENTRATION IN LAYER   6 AT END OF TIME STEP   1 IN STRESS PERIOD    1
  ---------------------------------------------------------------------------

                1               2               3               4               5               6               7               8               9              10
               11              12              13              14              15              16              17              18              19              20
               21              22              23              24              25
 ................................................................................................................................................................
   1  1.934263440     1.927572552     1.926035157     1.925852782     1.925833568     1.925831572     1.925831327     1.925831295     1.925831321     1.925831354    
      1.925831353     1.925831324     1.925831294     1.925831285     1.925831292     1.925831298     1.925831295     1.925831288     1.925831284     1.925831286    
      1.925831292     1.925831299     1.925831305     1.925831312     1.925831315    
1
  CONCENTRATION IN LAYER   7 AT END OF TIME STEP   1 IN STRESS PERIOD    1
  ---------------------------------------------------------------------------

                1               2               3               4               5               6               7               8               9              10
               11              12              13              14              15              16              17              18              19              20
               21              22              23              24              25
 ................................................................................................................................................................
   1  1.934263440     1.927534674     1.926026230     1.925851665     1.925833451     1.925831559     1.925831326     1.925831296     1.925831321     1.925831353    
      1.925831351     1.925831324     1.925831295     1.925831287     1.925831293     1.925831299     1.925831296     1.925831289     1.925831286     1.925831288    
      1.925831293     1.925831300     1.925831305     1.925831312     1.925831315    
1
  CONCENTRATION IN LAYER   8 AT END OF TIME STEP   1 IN STRESS PERIOD    1
  ---------------------------------------------------------------------------

                1               2               3               4               5               6               7               8               9              10
               11              12              13              14              15              16              17              18              19              20
               21              22              23              24              25
 ................................................................................................................................................................
   1  1.934263440     1.927519098     1.926021612     1.925850982     1.925833368     1.925831548     1.925831326     1.925831298     1.925831320     1.925831349    
      1.925831348     1.925831324     1.925831297     1.925831290     1.925831296     1.925831301     1.925831298     1.925831292     1.925831288     1.925831290    
      1.925831295     1.925831301     1.925831306     1.925831313     1.925831315    
1
  CONCENTRATION IN LAYER   9 AT END OF TIME STEP   1 IN STRESS PERIOD    1
  ---------------------------------------------------------------------------

                1               2               3               4               5               6               7               8               9              10
               11              12              13              14              15              16              17              18              19              20
               21              22              23              24              25
 ................................................................................................................................................................
   1  1.934263440     1.927512822     1.926019386     1.925850602     1.925833314     1.925831538     1.925831328     1.925831302     1.925831319     1.925831343    
      1.925831342     1.925831322     1.925831301     1.925831294     1.925831299     1.925831303     1.925831301     1.925831296     1.925831293     1.925831295    
      1.925831298     1.925831303     1.925831307     1.925831313     1.925831315    
1
  CONCENTRATION IN LAYER  10 AT END OF TIME STEP   1 IN STRESS PERIOD    1
  ---------------------------------------------------------------------------

                1               2               3               4               5               6               7               8               9              10
               11              12              13              14              15              16              17              18              19              20
               21              22              23              24              25
 ................................................................................................................................................................
   1  1.934263440     1.927510608     1.926018498     1.925850425     1.925833279     1.925831528     1.925831331     1.925831309     1.925831317     1.925831331    
      1.925831331     1.925831320     1.925831307     1.925831303     1.925831305     1.925831308     1.925831307     1.925831304     1.925831302     1.925831303    
      1.925831305     1.925831308     1.925831311     1.925831314     1.925831315    

 CONCENTRATION WILL BE SAVED ON UNIT 6725 AT END OF TIME STEP    1, STRESS PERIOD    1


  MASS BUDGET FOR ENTIRE MODEL AT END OF TIME STEP    1, STRESS PERIOD   1
  ---------------------------------------------------------------------------------------------------

     CUMULATIVE MASS      M       RATES FOR THIS TIME STEP      M/T          PACKAGE NAME    
     ------------------                 ------------------------                     ----------------

           IN:                                      IN:
           ---                                      ---
     STORAGE-AQUEOUS =       2.7429E-06       STORAGE-AQUEOUS =       2.7429E-07     MST                              
                 CHD =           1.2962                   CHD =           0.1296     SSM_CHD                          
                 CNC =           2.8269                   CNC =           0.2827     CNC                              

            TOTAL IN =           4.1230              TOTAL IN =           0.4123

          OUT:                                     OUT:
          ----                                     ----
     STORAGE-AQUEOUS =       9.9330E-02       STORAGE-AQUEOUS =       9.9330E-03     MST                              
                 CHD =           4.0121                   CHD =           0.4012     SSM_CHD                          
                 CNC =       1.1553E-02                   CNC =       1.1553E-03     CNC                              

           TOTAL OUT =           4.1230             TOTAL OUT =           0.4123

            IN - OUT =       2.4615E-08              IN - OUT =       2.4615E-09

 PERCENT DISCREPANCY =           0.00     PERCENT DISCREPANCY =           0.00




         TIME SUMMARY AT END OF TIME STEP    1 IN STRESS PERIOD    1
                    SECONDS     MINUTES      HOURS       DAYS        YEARS
                    -----------------------------------------------------------
   TIME STEP LENGTH 8.64000E+05  14400.      240.00      10.000     2.73785E-02
 STRESS PERIOD TIME 8.64000E+05  14400.      240.00      10.000     2.73785E-02
         TOTAL TIME 8.64000E+05  14400.      240.00      10.000     2.73785E-02


end timestep


start timestep kper="1" kstp="2" mode="normal"

 UBDSV06 SAVING  SOURCE-SINK MIX IN MODEL SI               PACKAGE SI              CONNECTED TO MODEL SI               PACKAGE SSM              ON UNIT   6724 AT TIME STEP      2, STRESS PERIOD      1
 UBDSV06 SAVING              CNC IN MODEL SI               PACKAGE SI              CONNECTED TO MODEL SI               PACKAGE CNC              ON UNIT   6724 AT TIME STEP      2, STRESS PERIOD      1

 SSM PACKAGE (SSM) FLOW RATES   PERIOD      1   STEP        2
 ------------------------------------------------------------------------------------------------
   NUMBER   CELLID                   BOUND Q        SSM CONC          RATE         PACKAGE NAME  
 ------------------------------------------------------------------------------------------------
     1      (1,1,1)               2.08333319E-02  2.0738495       4.32051943E-02       CHD       
     2      (2,1,1)               2.08333319E-02  2.0738495       4.32051943E-02       CHD       
     3      (3,1,1)               2.08333319E-02  2.0738495       4.32051943E-02       CHD       
     4      (4,1,1)               0.0000000       0.0000000       0.0000000            CHD       
     5      (5,1,1)               0.0000000       0.0000000       0.0000000            CHD       
     6      (6,1,1)               0.0000000       0.0000000       0.0000000            CHD       
     7      (7,1,1)               0.0000000       0.0000000       0.0000000            CHD       
     8      (8,1,1)               0.0000000       0.0000000       0.0000000            CHD       
     9      (9,1,1)               0.0000000       0.0000000       0.0000000            CHD       
     10     (10,1,1)              0.0000000       0.0000000       0.0000000            CHD       
     11     (1,1,25)             -2.08333370E-02  1.9258313      -4.01214928E-02       CHD       
     12     (2,1,25)             -2.08333370E-02  1.9258313      -4.01214928E-02       CHD       
     13     (3,1,25)             -2.08333370E-02  1.9258313      -4.01214928E-02       CHD       
     14     (4,1,25)             -2.08333370E-02  1.9258313      -4.01214928E-02       CHD       
     15     (5,1,25)             -2.08333370E-02  1.9258313      -4.01214928E-02       CHD       
     16     (6,1,25)             -2.08333370E-02  1.9258313      -4.01214928E-02       CHD       
     17     (7,1,25)             -2.08333370E-02  1.9258313      -4.01214928E-02       CHD       
     18     (8,1,25)             -2.08333370E-02  1.9258313      -4.01214928E-02       CHD       
     19     (9,1,25)             -2.08333370E-02  1.9258313      -4.01214928E-02       CHD       
     20     (10,1,25)            -2.08333370E-02  1.9258313      -4.01214928E-02       CHD       
 ------------------------------------------------------------------------------------------------




 CNC PACKAGE (CNC) FLOW RATES   PERIOD      1   STEP        2
 -----------------------------------------------
   NUMBER   CELLID                    RATE      
 -----------------------------------------------
     1      (4,1,1)               3.97499308E-02
     2      (5,1,1)               4.03864840E-02
     3      (6,1,1)               4.03859029E-02
     4      (7,1,1)               4.03855279E-02
     5      (8,1,1)               4.03853218E-02
     6      (9,1,1)               4.03852208E-02
     7      (10,1,1)              4.03851809E-02
 -----------------------------------------------



1
  CONCENTRATION IN LAYER   1 AT END OF TIME STEP   2 IN STRESS PERIOD    1
  ---------------------------------------------------------------------------

                1               2               3               4               5               6               7               8               9              10
               11              12              13              14              15              16              17              18              19              20
               21              22              23              24              25
 ................................................................................................................................................................
   1  1.938170756     1.927318057     1.925888925     1.925828793     1.925830232     1.925831106     1.925831364     1.925831342     1.925831327     1.925831324    
      1.925831320     1.925831316     1.925831311     1.925831307     1.925831305     1.925831304     1.925831302     1.925831301     1.925831301     1.925831302    
      1.925831304     1.925831307     1.925831310     1.925831314     1.925831315    
1
  CONCENTRATION IN LAYER   2 AT END OF TIME STEP   2 IN STRESS PERIOD    1
  ---------------------------------------------------------------------------

                1               2               3               4               5               6               7               8               9              10
               11              12              13              14              15              16              17              18              19              20
               21              22              23              24              25
 ................................................................................................................................................................
   1  1.938050419     1.927359867     1.925900739     1.925830255     1.925830439     1.925831127     1.925831376     1.925831349     1.925831330     1.925831324    
      1.925831318     1.925831314     1.925831309     1.925831305     1.925831302     1.925831299     1.925831297     1.925831296     1.925831296     1.925831298    
      1.925831301     1.925831304     1.925831308     1.925831313     1.925831315    
1
  CONCENTRATION IN LAYER   3 AT END OF TIME STEP   2 IN STRESS PERIOD    1
  ---------------------------------------------------------------------------

                1               2               3               4               5               6               7               8               9              10
               11              12              13              14              15              16              17              18              19              20
               21              22              23              24              25
 ................................................................................................................................................................
   1  1.937321804     1.927395533     1.925920365     1.925832895     1.925830737     1.925831177     1.925831395     1.925831360     1.925831336     1.925831323    
      1.925831315     1.925831311     1.925831307     1.925831303     1.925831297     1.925831292     1.925831289     1.925831288     1.925831289     1.925831292    
      1.925831295     1.925831300     1.925831305     1.925831312     1.925831315    
1
  CONCENTRATION IN LAYER   4 AT END OF TIME STEP   2 IN STRESS PERIOD    1
  ---------------------------------------------------------------------------

                1               2               3               4               5               6               7               8               9              10
               11              12              13              14              15              16              17              18              19              20
               21              22              23              24              25
 ................................................................................................................................................................
   1  1.934263440     1.927356225     1.925942529     1.925836168     1.925831084     1.925831251     1.925831411     1.925831369     1.925831341     1.925831324    
      1.925831312     1.925831309     1.925831306     1.925831301     1.925831293     1.925831286     1.925831282     1.925831281     1.925831283     1.925831286    
      1.925831290     1.925831296     1.925831302     1.925831311     1.925831315    
1
  CONCENTRATION IN LAYER   5 AT END OF TIME STEP   2 IN STRESS PERIOD    1
  ---------------------------------------------------------------------------

                1               2               3               4               5               6               7               8               9              10
               11              12              13              14              15              16              17              18              19              20
               21              22              23              24              25
 ................................................................................................................................................................
   1  1.934263440     1.927402751     1.925965232     1.925839589     1.925831464     1.925831325     1.925831419     1.925831374     1.925831344     1.925831324    
      1.925831311     1.925831308     1.925831306     1.925831300     1.925831291     1.925831282     1.925831278     1.925831277     1.925831279     1.925831282    
      1.925831287     1.925831293     1.925831300     1.925831310     1.925831315    
1
  CONCENTRATION IN LAYER   6 AT END OF TIME STEP   2 IN STRESS PERIOD    1
  ---------------------------------------------------------------------------

                1               2               3               4               5               6               7               8               9              10
               11              12              13              14              15              16              17              18              19              20
               21              22              23              24              25
 ................................................................................................................................................................
   1  1.934263440     1.927447382     1.925983969     1.925842634     1.925831839     1.925831382     1.925831421     1.925831373     1.925831344     1.925831324    
      1.925831311     1.925831309     1.925831306     1.925831300     1.925831290     1.925831281     1.925831277     1.925831276     1.925831278     1.925831281    
      1.925831286     1.925831292     1.925831299     1.925831310     1.925831315    
1
  CONCENTRATION IN LAYER   7 AT END OF TIME STEP   2 IN STRESS PERIOD    1
  ---------------------------------------------------------------------------

                1               2               3               4               5               6               7               8               9              10
               11              12              13              14              15              16              17              18              19              20
               21              22              23              24              25
 ................................................................................................................................................................
   1  1.934263440     1.927476178     1.925996979     1.925845009     1.925832168     1.925831424     1.925831417     1.925831369     1.925831343     1.925831324    
      1.925831312     1.925831309     1.925831306     1.925831301     1.925831291     1.925831283     1.925831278     1.925831277     1.925831279     1.925831282    
      1.925831287     1.925831293     1.925831299     1.925831310     1.925831315    
1
  CONCENTRATION IN LAYER   8 AT END OF TIME STEP   2 IN STRESS PERIOD    1
  ---------------------------------------------------------------------------

                1               2               3               4               5               6               7               8               9              10
               11              12              13              14              15              16              17              18              19              20
               21              22              23              24              25
 ................................................................................................................................................................
   1  1.934263440     1.927492007     1.926005183     1.925846696     1.925832428     1.925831452     1.925831407     1.925831363     1.925831340     1.925831324    
      1.925831313     1.925831310     1.925831307     1.925831302     1.925831293     1.925831286     1.925831281     1.925831281     1.925831282     1.925831285    
      1.925831289     1.925831294     1.925831301     1.925831310     1.925831315    
1
  CONCENTRATION IN LAYER   9 AT END OF TIME STEP   2 IN STRESS PERIOD    1
  ---------------------------------------------------------------------------

                1               2               3               4               5               6               7               8               9              10
               11              12              13              14              15              16              17              18              19              20
               21              22              23              24              25
 ................................................................................................................................................................
   1  1.934263440     1.927499762     1.926009844     1.925847758     1.925832609     1.925831466     1.925831396     1.925831355     1.925831336     1.925831324    
      1.925831315     1.925831312     1.925831308     1.925831303     1.925831296     1.925831290     1.925831287     1.925831286     1.925831287     1.925831289    
      1.925831293     1.925831297     1.925831303     1.925831311     1.925831315    
1
  CONCENTRATION IN LAYER  10 AT END OF TIME STEP   2 IN STRESS PERIOD    1
  ---------------------------------------------------------------------------

                1               2               3               4               5               6               7               8               9              10
               11              12              13              14              15              16              17              18              19              20
               21              22              23              24              25
 ................................................................................................................................................................
   1  1.934263440     1.927502827     1.926011944     1.925848266     1.925832706     1.925831471     1.925831382     1.925831341     1.925831329     1.925831326    
      1.925831321     1.925831316     1.925831309     1.925831303     1.925831300     1.925831298     1.925831295     1.925831293     1.925831293     1.925831295    
      1.925831298     1.925831301     1.925831306     1.925831312     1.925831315    

 CONCENTRATION WILL BE SAVED ON UNIT 6725 AT END OF TIME STEP    2, STRESS PERIOD    1


  MASS BUDGET FOR ENTIRE MODEL AT END OF TIME STEP    2, STRESS PERIOD   1
  ---------------------------------------------------------------------------------------------------

     CUMULATIVE MASS      M       RATES FOR THIS TIME STEP      M/T          PACKAGE NAME    
     ------------------                 ------------------------                     ----------------

           IN:                                      IN:
           ---                                      ---
     STORAGE-AQUEOUS =       5.1407E-06       STORAGE-AQUEOUS =       2.3977E-07     MST                              
                 CHD =           2.5923                   CHD =           0.1296     SSM_CHD                          
                 CNC =           5.6539                   CNC =           0.2827     CNC                              

            TOTAL IN =           8.2462              TOTAL IN =           0.4123

          OUT:                                     OUT:
          ----                                     ----
     STORAGE-AQUEOUS =           0.2040       STORAGE-AQUEOUS =       1.0464E-02     MST                              
                 CHD =           8.0243                   CHD =           0.4012     SSM_CHD                          
                 CNC =       1.7925E-02                   CNC =       6.3716E-04     CNC                              

           TOTAL OUT =           8.2462             TOTAL OUT =           0.4123

            IN - OUT =       5.0278E-08              IN - OUT =       2.5663E-09

 PERCENT DISCREPANCY =           0.00     PERCENT DISCREPANCY =           0.00




         TIME SUMMARY AT END OF TIME STEP    2 IN STRESS PERIOD    1
                    SECONDS     MINUTES      HOURS       DAYS        YEARS
                    -----------------------------------------------------------
   TIME STEP LENGTH 8.64000E+05  14400.      240.00      10.000     2.73785E-02
 STRESS PERIOD TIME 1.72800E+06  28800.      480.00      20.000     5.47570E-02
         TOTAL TIME 1.72800E+06  28800.      480.00      20.000     5.47570E-02


end timestep


start timestep kper="1" kstp="3" mode="normal"

 UBDSV06 SAVING  SOURCE-SINK MIX IN MODEL SI               PACKAGE SI              CONNECTED TO MODEL SI               PACKAGE SSM              ON UNIT   6724 AT TIME STEP      3, STRESS PERIOD      1
 UBDSV06 SAVING              CNC IN MODEL SI               PACKAGE SI              CONNECTED TO MODEL SI               PACKAGE CNC              ON UNIT   6724 AT TIME STEP      3, STRESS PERIOD      1

 SSM PACKAGE (SSM) FLOW RATES   PERIOD      1   STEP        3
 ------------------------------------------------------------------------------------------------
   NUMBER   CELLID                   BOUND Q        SSM CONC          RATE         PACKAGE NAME  
 ------------------------------------------------------------------------------------------------
     1      (1,1,1)               2.08333325E-02  2.0738495       4.32051956E-02       CHD       
     2      (2,1,1)               2.08333325E-02  2.0738495       4.32051956E-02       CHD       
     3      (3,1,1)               2.08333325E-02  2.0738495       4.32051956E-02       CHD       
     4      (4,1,1)               0.0000000       0.0000000       0.0000000            CHD       
     5      (5,1,1)               0.0000000       0.0000000       0.0000000            CHD       
     6      (6,1,1)               0.0000000       0.0000000       0.0000000            CHD       
     7      (7,1,1)               0.0000000       0.0000000       0.0000000            CHD       
     8      (8,1,1)               0.0000000       0.0000000       0.0000000            CHD       
     9      (9,1,1)               0.0000000       0.0000000       0.0000000            CHD       
     10     (10,1,1)              0.0000000       0.0000000       0.0000000            CHD       
     11     (1,1,25)             -2.08333362E-02  1.9258313      -4.01214912E-02       CHD       
     12     (2,1,25)             -2.08333362E-02  1.9258313      -4.01214913E-02       CHD       
     13     (3,1,25)             -2.08333362E-02  1.9258313      -4.01214913E-02       CHD       
     14     (4,1,25)             -2.08333362E-02  1.9258313      -4.01214913E-02       CHD       
     15     (5,1,25)             -2.08333362E-02  1.9258313      -4.01214913E-02       CHD       
     16     (6,1,25)             -2.08333362E-02  1.9258313      -4.01214913E-02       CHD       
     17     (7,1,25)             -2.08333362E-02  1.9258313      -4.01214913E-02       CHD       
     18     (8,1,25)             -2.08333362E-02  1.9258313      -4.01214913E-02       CHD       
     19     (9,1,25)             -2.08333362E-02  1.9258313      -4.01214913E-02       CHD       
     20     (10,1,25)            -2.08333362E-02  1.9258313      -4.01214913E-02       CHD       
 ------------------------------------------------------------------------------------------------




 CNC PACKAGE (CNC) FLOW RATES   PERIOD      1   STEP        3
 -----------------------------------------------
   NUMBER   CELLID                    RATE      
 -----------------------------------------------
     1      (4,1,1)               4.00530872E-02
     2      (5,1,1)               4.03910565E-02
     3      (6,1,1)               4.03883389E-02
     4      (7,1,1)               4.03867848E-02
     5      (8,1,1)               4.03859603E-02
     6      (9,1,1)               4.03855569E-02
     7      (10,1,1)              4.03853949E-02
 -----------------------------------------------



1
  CONCENTRATION IN LAYER   1 AT END OF TIME STEP   3 IN STRESS PERIOD    1
  ---------------------------------------------------------------------------

                1               2               3               4               5               6               7               8               9              10
               11              12              13              14              15              16              17              18              19              20
               21              22              23              24              25
 ................................................................................................................................................................
   1  1.935286663     1.925628490     1.925551701     1.925752396     1.925818811     1.925829634     1.925831177     1.925831322     1.925831331     1.925831325    
      1.925831320     1.925831315     1.925831309     1.925831304     1.925831300     1.925831298     1.925831296     1.925831295     1.925831295     1.925831296    
      1.925831299     1.925831302     1.925831307     1.925831312     1.925831315    
1
  CONCENTRATION IN LAYER   2 AT END OF TIME STEP   3 IN STRESS PERIOD    1
  ---------------------------------------------------------------------------

                1               2               3               4               5               6               7               8               9              10
               11              12              13              14              15              16              17              18              19              20
               21              22              23              24              25
 ................................................................................................................................................................
   1  1.935651848     1.925890658     1.925591760     1.925760422     1.925819649     1.925829725     1.925831192     1.925831322     1.925831332     1.925831325    
      1.925831319     1.925831314     1.925831307     1.925831301     1.925831296     1.925831293     1.925831291     1.925831290     1.925831291     1.925831292    
      1.925831295     1.925831300     1.925831305     1.925831311     1.925831315    
1
  CONCENTRATION IN LAYER   3 AT END OF TIME STEP   3 IN STRESS PERIOD    1
  ---------------------------------------------------------------------------

                1               2               3               4               5               6               7               8               9              10
               11              12              13              14              15              16              17              18              19              20
               21              22              23              24              25
 ................................................................................................................................................................
   1  1.935906149     1.926319242     1.925660848     1.925774438     1.925821130     1.925829888     1.925831214     1.925831323     1.925831333     1.925831325    
      1.925831318     1.925831313     1.925831305     1.925831297     1.925831291     1.925831287     1.925831284     1.925831283     1.925831284     1.925831286    
      1.925831290     1.925831296     1.925831302     1.925831310     1.925831314    
1
  CONCENTRATION IN LAYER   4 AT END OF TIME STEP   3 IN STRESS PERIOD    1
  ---------------------------------------------------------------------------

                1               2               3               4               5               6               7               8               9              10
               11              12              13              14              15              16              17              18              19              20
               21              22              23              24              25
 ................................................................................................................................................................
   1  1.934263440     1.926724388     1.925740758     1.925791194     1.925822938     1.925830090     1.925831234     1.925831328     1.925831334     1.925831325    
      1.925831318     1.925831311     1.925831302     1.925831293     1.925831286     1.925831281     1.925831278     1.925831277     1.925831278     1.925831280    
      1.925831285     1.925831292     1.925831300     1.925831309     1.925831314    
1
  CONCENTRATION IN LAYER   5 AT END OF TIME STEP   3 IN STRESS PERIOD    1
  ---------------------------------------------------------------------------

                1               2               3               4               5               6               7               8               9              10
               11              12              13              14              15              16              17              18              19              20
               21              22              23              24              25
 ................................................................................................................................................................
   1  1.934263440     1.927051686     1.925821864     1.925807509     1.925824782     1.925830294     1.925831251     1.925831333     1.925831332     1.925831325    
      1.925831318     1.925831311     1.925831301     1.925831291     1.925831283     1.925831277     1.925831274     1.925831273     1.925831274     1.925831277    
      1.925831282     1.925831289     1.925831298     1.925831308     1.925831314    
1
  CONCENTRATION IN LAYER   6 AT END OF TIME STEP   3 IN STRESS PERIOD    1
  ---------------------------------------------------------------------------

                1               2               3               4               5               6               7               8               9              10
               11              12              13              14              15              16              17              18              19              20
               21              22              23              24              25
 ................................................................................................................................................................
   1  1.934263440     1.927260398     1.925889593     1.925819827     1.925826989     1.925830549     1.925831268     1.925831336     1.925831323     1.925831324    
      1.925831318     1.925831311     1.925831301     1.925831291     1.925831282     1.925831276     1.925831273     1.925831272     1.925831272     1.925831275    
      1.925831281     1.925831288     1.925831297     1.925831308     1.925831314    
1
  CONCENTRATION IN LAYER   7 AT END OF TIME STEP   3 IN STRESS PERIOD    1
  ---------------------------------------------------------------------------

                1               2               3               4               5               6               7               8               9              10
               11              12              13              14              15              16              17              18              19              20
               21              22              23              24              25
 ................................................................................................................................................................
   1  1.934263440     1.927379755     1.925937788     1.925829075     1.925828910     1.925830752     1.925831283     1.925831336     1.925831301     1.925831323    
      1.925831318     1.925831312     1.925831302     1.925831291     1.925831283     1.925831277     1.925831274     1.925831273     1.925831273     1.925831276    
      1.925831281     1.925831289     1.925831297     1.925831308     1.925831314    
1
  CONCENTRATION IN LAYER   8 AT END OF TIME STEP   3 IN STRESS PERIOD    1
  ---------------------------------------------------------------------------

                1               2               3               4               5               6               7               8               9              10
               11              12              13              14              15              16              17              18              19              20
               21              22              23              24              25
 ................................................................................................................................................................
   1  1.934263440     1.927443077     1.925968775     1.925835743     1.925830132     1.925830954     1.925831297     1.925831336     1.925831321     1.925831324    
      1.925831319     1.925831313     1.925831303     1.925831293     1.925831285     1.925831280     1.925831277     1.925831276     1.925831276     1.925831279    
      1.925831283     1.925831290     1.925831298     1.925831308     1.925831314    
1
  CONCENTRATION IN LAYER   9 AT END OF TIME STEP   3 IN STRESS PERIOD    1
  ---------------------------------------------------------------------------

                1               2               3               4               5               6               7               8               9              10
               11              12              13              14              15              16              17              18              19              20
               21              22              23              24              25
 ................................................................................................................................................................
   1  1.934263440     1.927474058     1.925986714     1.925839927     1.925830871     1.925831099     1.925831308     1.925831334     1.925831327     1.925831325    
      1.925831320     1.925831314     1.925831305     1.925831296     1.925831289     1.925831285     1.925831282     1.925831280     1.925831281     1.925831283    
      1.925831287     1.925831293     1.925831300     1.925831309     1.925831314    
1
  CONCENTRATION IN LAYER  10 AT END OF TIME STEP   3 IN STRESS PERIOD    1
  ---------------------------------------------------------------------------

                1               2               3               4               5               6               7               8               9              10
               11              12              13              14              15              16              17              18              19              20
               21              22              23              24              25
 ................................................................................................................................................................
   1  1.934263440     1.927486496     1.925994849     1.925841905     1.925831221     1.925831171     1.925831312     1.925831333     1.925831329     1.925831326    
      1.925831320     1.925831315     1.925831307     1.925831299     1.925831294     1.925831290     1.925831287     1.925831286     1.925831286     1.925831287    
      1.925831291     1.925831296     1.925831302     1.925831309     1.925831314    

 CONCENTRATION WILL BE SAVED ON UNIT 6725 AT END OF TIME STEP    3, STRESS PERIOD    1


  MASS BUDGET FOR ENTIRE MODEL AT END OF TIME STEP    3, STRESS PERIOD   1
  ---------------------------------------------------------------------------------------------------

     CUMULATIVE MASS      M       RATES FOR THIS TIME STEP      M/T          PACKAGE NAME    
     ------------------                 ------------------------                     ----------------

           IN:                                      IN:
           ---                                      ---
     STORAGE-AQUEOUS =       2.1739E-04       STORAGE-AQUEOUS =       2.1225E-05     MST                              
                 CHD =           3.8885                   CHD =           0.1296     SSM_CHD                          
                 CNC =           8.4811                   CNC =           0.2827     CNC                              

            TOTAL IN =          12.3698              TOTAL IN =           0.4124

          OUT:                                     OUT:
          ----                                     ----
     STORAGE-AQUEOUS =           0.3120       STORAGE-AQUEOUS =       1.0798E-02     MST                              
                 CHD =          12.0364                   CHD =           0.4012     SSM_CHD                          
                 CNC =       2.1347E-02                   CNC =       3.4223E-04     CNC                              

           TOTAL OUT =          12.3698             TOTAL OUT =           0.4124

            IN - OUT =       9.5678E-08              IN - OUT =       4.5400E-09

 PERCENT DISCREPANCY =           0.00     PERCENT DISCREPANCY =           0.00




         TIME SUMMARY AT END OF TIME STEP    3 IN STRESS PERIOD    1
                    SECONDS     MINUTES      HOURS       DAYS        YEARS
                    -----------------------------------------------------------
   TIME STEP LENGTH 8.64000E+05  14400.      240.00      10.000     2.73785E-02
 STRESS PERIOD TIME 2.59200E+06  43200.      720.00      30.000     8.21355E-02
         TOTAL TIME 2.59200E+06  43200.      720.00      30.000     8.21355E-02


end timestep


start timestep kper="1" kstp="4" mode="normal"

 UBDSV06 SAVING  SOURCE-SINK MIX IN MODEL SI               PACKAGE SI              CONNECTED TO MODEL SI               PACKAGE SSM              ON UNIT   6724 AT TIME STEP      4, STRESS PERIOD      1
 UBDSV06 SAVING              CNC IN MODEL SI               PACKAGE SI              CONNECTED TO MODEL SI               PACKAGE CNC              ON UNIT   6724 AT TIME STEP      4, STRESS PERIOD      1

 SSM PACKAGE (SSM) FLOW RATES   PERIOD      1   STEP        4
 ------------------------------------------------------------------------------------------------
   NUMBER   CELLID                   BOUND Q        SSM CONC          RATE         PACKAGE NAME  
 ------------------------------------------------------------------------------------------------
     1      (1,1,1)               2.08333321E-02  2.0738495       4.32051948E-02       CHD       
     2      (2,1,1)               2.08333321E-02  2.0738495       4.32051948E-02       CHD       
     3      (3,1,1)               2.08333321E-02  2.0738495       4.32051948E-02       CHD       
     4      (4,1,1)               0.0000000       0.0000000       0.0000000            CHD       
     5      (5,1,1)               0.0000000       0.0000000       0.0000000            CHD       
     6      (6,1,1)               0.0000000       0.0000000       0.0000000            CHD       
     7      (7,1,1)               0.0000000       0.0000000       0.0000000            CHD       
     8      (8,1,1)               0.0000000       0.0000000       0.0000000            CHD       
     9      (9,1,1)               0.0000000       0.0000000       0.0000000            CHD       
     10     (10,1,1)              0.0000000       0.0000000       0.0000000            CHD       
     11     (1,1,25)             -2.08333356E-02  1.9258313      -4.01214901E-02       CHD       
     12     (2,1,25)             -2.08333356E-02  1.9258313      -4.01214901E-02       CHD       
     13     (3,1,25)             -2.08333356E-02  1.9258313      -4.01214900E-02       CHD       
     14     (4,1,25)             -2.08333356E-02  1.9258313      -4.01214900E-02       CHD       
     15     (5,1,25)             -2.08333356E-02  1.9258313      -4.01214898E-02       CHD       
     16     (6,1,25)             -2.08333356E-02  1.9258313      -4.01214893E-02       CHD       
     17     (7,1,25)             -2.08333356E-02  1.9258313      -4.01214898E-02       CHD       
     18     (8,1,25)             -2.08333356E-02  1.9258313      -4.01214900E-02       CHD       
     19     (9,1,25)             -2.08333356E-02  1.9258313      -4.01214900E-02       CHD       
     20     (10,1,25)            -2.08333356E-02  1.9258313      -4.01214901E-02       CHD       
 ------------------------------------------------------------------------------------------------




 CNC PACKAGE (CNC) FLOW RATES   PERIOD      1   STEP        4
 -----------------------------------------------
   NUMBER   CELLID                    RATE      
 -----------------------------------------------
     1      (4,1,1)               4.02358232E-02
     2      (5,1,1)               4.03961102E-02
     3      (6,1,1)               4.03912823E-02
     4      (7,1,1)               4.03884420E-02
     5      (8,1,1)               4.03868802E-02
     6      (9,1,1)               4.03860864E-02
     7      (10,1,1)              4.03857587E-02
 -----------------------------------------------



1
  CONCENTRATION IN LAYER   1 AT END OF TIME STEP   4 IN STRESS PERIOD    1
  ---------------------------------------------------------------------------

                1               2               3               4               5               6               7               8               9              10
               11              12              13              14              15              16              17              18              19              20
               21              22              23              24              25
 ................................................................................................................................................................
   1  1.933841471     1.924236156     1.925051424     1.925648033     1.925799864     1.925826573     1.925830688     1.925831275     1.925831336     1.925831330    
      1.925831320     1.925831313     1.925831306     1.925831301     1.925831296     1.925831291     1.925831290     1.925831289     1.925831289     1.925831291    
      1.925831294     1.925831298     1.925831304     1.925831310     1.925831313    
1
  CONCENTRATION IN LAYER   2 AT END OF TIME STEP   4 IN STRESS PERIOD    1
  ---------------------------------------------------------------------------

                1               2               3               4               5               6               7               8               9              10
               11              12              13              14              15              16              17              18              19              20
               21              22              23              24              25
 ................................................................................................................................................................
   1  1.934277543     1.924637536     1.925152487     1.925659075     1.925801237     1.925826761     1.925830711     1.925831278     1.925831338     1.925831331    
      1.925831319     1.925831312     1.925831304     1.925831298     1.925831293     1.925831287     1.925831286     1.925831285     1.925831286     1.925831287    
      1.925831291     1.925831296     1.925831302     1.925831309     1.925831312    
1
  CONCENTRATION IN LAYER   3 AT END OF TIME STEP   4 IN STRESS PERIOD    1
  ---------------------------------------------------------------------------

                1               2               3               4               5               6               7               8               9              10
               11              12              13              14              15              16              17              18              19              20
               21              22              23              24              25
 ................................................................................................................................................................
   1  1.935068754     1.925339981     1.925318837     1.925677580     1.925803822     1.925827116     1.925830753     1.925831285     1.925831342     1.925831331    
      1.925831318     1.925831309     1.925831299     1.925831294     1.925831288     1.925831278     1.925831280     1.925831279     1.925831280     1.925831282    
      1.925831287     1.925831293     1.925831300     1.925831308     1.925831311    
1
  CONCENTRATION IN LAYER   4 AT END OF TIME STEP   4 IN STRESS PERIOD    1
  ---------------------------------------------------------------------------

                1               2               3               4               5               6               7               8               9              10
               11              12              13              14              15              16              17              18              19              20
               21              22              23              24              25
 ................................................................................................................................................................
   1  1.934263440     1.926088521     1.925476928     1.925708722     1.925807625     1.925827598     1.925830808     1.925831294     1.925831346     1.925831332    
      1.925831317     1.925831307     1.925831293     1.925831290     1.925831284     1.925831276     1.925831274     1.925831273     1.925831274     1.925831276    
      1.925831282     1.925831289     1.925831297     1.925831307     1.925831306    
1
  CONCENTRATION IN LAYER   5 AT END OF TIME STEP   4 IN STRESS PERIOD    1
  ---------------------------------------------------------------------------

                1               2               3               4               5               6               7               8               9              10
               11              12              13              14              15              16              17              18              19              20
               21              22              23              24              25
 ................................................................................................................................................................
   1  1.934263440     1.926663503     1.925628357     1.925743496     1.925811987     1.925828145     1.925830869     1.925831305     1.925831349     1.925831333    
      1.925831316     1.925831305     1.925831282     1.925831286     1.925831281     1.925831274     1.925831270     1.925831269     1.925831270     1.925831271    
      1.925831278     1.925831287     1.925831295     1.925831306     1.925831297    
1
  CONCENTRATION IN LAYER   6 AT END OF TIME STEP   4 IN STRESS PERIOD    1
  ---------------------------------------------------------------------------

                1               2               3               4               5               6               7               8               9              10
               11              12              13              14              15              16              17              18              19              20
               21              22              23              24              25
 ................................................................................................................................................................
   1  1.934263440     1.927034282     1.925753798     1.925775220     1.925816209     1.925828696     1.925830932     1.925831313     1.925831351     1.925831334    
      1.925831316     1.925831305     1.925831260     1.925831285     1.925831280     1.925831273     1.925831269     1.925831268     1.925831268     1.925831266    
      1.925831276     1.925831285     1.925831294     1.925831305     1.925831274    
1
  CONCENTRATION IN LAYER   7 AT END OF TIME STEP   4 IN STRESS PERIOD    1
  ---------------------------------------------------------------------------

                1               2               3               4               5               6               7               8               9              10
               11              12              13              14              15              16              17              18              19              20
               21              22              23              24              25
 ................................................................................................................................................................
   1  1.934263440     1.927252418     1.925847013     1.925798638     1.925820214     1.925829209     1.925830991     1.925831320     1.925831350     1.925831333    
      1.925831317     1.925831306     1.925831283     1.925831287     1.925831281     1.925831274     1.925831270     1.925831269     1.925831269     1.925831258    
      1.925831275     1.925831286     1.925831294     1.925831305     1.925831296    
1
  CONCENTRATION IN LAYER   8 AT END OF TIME STEP   4 IN STRESS PERIOD    1
  ---------------------------------------------------------------------------

                1               2               3               4               5               6               7               8               9              10
               11              12              13              14              15              16              17              18              19              20
               21              22              23              24              25
 ................................................................................................................................................................
   1  1.934263440     1.927372369     1.925909584     1.925814266     1.925823724     1.925829640     1.925831041     1.925831324     1.925831348     1.925831333    
      1.925831318     1.925831308     1.925831293     1.925831289     1.925831283     1.925831277     1.925831273     1.925831271     1.925831270     1.925831237    
      1.925831275     1.925831287     1.925831295     1.925831306     1.925831306    
1
  CONCENTRATION IN LAYER   9 AT END OF TIME STEP   4 IN STRESS PERIOD    1
  ---------------------------------------------------------------------------

                1               2               3               4               5               6               7               8               9              10
               11              12              13              14              15              16              17              18              19              20
               21              22              23              24              25
 ................................................................................................................................................................
   1  1.934263440     1.927433333     1.925946790     1.925823855     1.925826182     1.925829932     1.925831077     1.925831325     1.925831345     1.925831332    
      1.925831319     1.925831309     1.925831299     1.925831292     1.925831286     1.925831281     1.925831277     1.925831275     1.925831274     1.925831262    
      1.925831279     1.925831289     1.925831297     1.925831306     1.925831310    
1
  CONCENTRATION IN LAYER  10 AT END OF TIME STEP   4 IN STRESS PERIOD    1
  ---------------------------------------------------------------------------

                1               2               3               4               5               6               7               8               9              10
               11              12              13              14              15              16              17              18              19              20
               21              22              23              24              25
 ................................................................................................................................................................
   1  1.934263440     1.927458496     1.925964030     1.925828363     1.925827414     1.925830066     1.925831095     1.925831324     1.925831343     1.925831333    
      1.925831321     1.925831312     1.925831302     1.925831296     1.925831290     1.925831285     1.925831281     1.925831279     1.925831279     1.925831273    
      1.925831283     1.925831291     1.925831298     1.925831307     1.925831311    

 CONCENTRATION WILL BE SAVED ON UNIT 6725 AT END OF TIME STEP    4, STRESS PERIOD    1


  MASS BUDGET FOR ENTIRE MODEL AT END OF TIME STEP    4, STRESS PERIOD   1
  ---------------------------------------------------------------------------------------------------

     CUMULATIVE MASS      M       RATES FOR THIS TIME STEP      M/T          PACKAGE NAME    
     ------------------                 ------------------------                     ----------------

           IN:                                      IN:
           ---                                      ---
     STORAGE-AQUEOUS =       9.3478E-04       STORAGE-AQUEOUS =       7.1738E-05     MST                              
                 CHD =           5.1846                   CHD =           0.1296     SSM_CHD                          
                 CNC =          11.3084                   CNC =           0.2827     CNC                              

            TOTAL IN =          16.4940              TOTAL IN =           0.4124

          OUT:                                     OUT:
          ----                                     ----
     STORAGE-AQUEOUS =           0.4224       STORAGE-AQUEOUS =       1.1043E-02     MST                              
                 CHD =          16.0486                   CHD =           0.4012     SSM_CHD                          
                 CNC =       2.3025E-02                   CNC =       1.6777E-04     CNC                              

           TOTAL OUT =          16.4940             TOTAL OUT =           0.4124

            IN - OUT =       1.3814E-07              IN - OUT =       4.2457E-09

 PERCENT DISCREPANCY =           0.00     PERCENT DISCREPANCY =           0.00




         TIME SUMMARY AT END OF TIME STEP    4 IN STRESS PERIOD    1
                    SECONDS     MINUTES      HOURS       DAYS        YEARS
                    -----------------------------------------------------------
   TIME STEP LENGTH 8.64000E+05  14400.      240.00      10.000     2.73785E-02
 STRESS PERIOD TIME 3.45600E+06  57600.      960.00      40.000     0.10951    
         TOTAL TIME 3.45600E+06  57600.      960.00      40.000     0.10951    


end timestep


start timestep kper="1" kstp="5" mode="normal"

 UBDSV06 SAVING  SOURCE-SINK MIX IN MODEL SI               PACKAGE SI              CONNECTED TO MODEL SI               PACKAGE SSM              ON UNIT   6724 AT TIME STEP      5, STRESS PERIOD      1
 UBDSV06 SAVING              CNC IN MODEL SI               PACKAGE SI              CONNECTED TO MODEL SI               PACKAGE CNC              ON UNIT   6724 AT TIME STEP      5, STRESS PERIOD      1

 SSM PACKAGE (SSM) FLOW RATES   PERIOD      1   STEP        5
 ------------------------------------------------------------------------------------------------
   NUMBER   CELLID                   BOUND Q        SSM CONC          RATE         PACKAGE NAME  
 ------------------------------------------------------------------------------------------------
     1      (1,1,1)               2.08333321E-02  2.0738495       4.32051947E-02       CHD       
     2      (2,1,1)               2.08333321E-02  2.0738495       4.32051947E-02       CHD       
     3      (3,1,1)               2.08333321E-02  2.0738495       4.32051947E-02       CHD       
     4      (4,1,1)               0.0000000       0.0000000       0.0000000            CHD       
     5      (5,1,1)               0.0000000       0.0000000       0.0000000            CHD       
     6      (6,1,1)               0.0000000       0.0000000       0.0000000            CHD       
     7      (7,1,1)               0.0000000       0.0000000       0.0000000            CHD       
     8      (8,1,1)               0.0000000       0.0000000       0.0000000            CHD       
     9      (9,1,1)               0.0000000       0.0000000       0.0000000            CHD       
     10     (10,1,1)              0.0000000       0.0000000       0.0000000            CHD       
     11     (1,1,25)             -2.08333353E-02  1.9258313      -4.01214895E-02       CHD       
[...]
               21              22              23              24              25
 ................................................................................................................................................................
   1  1.934263440     1.926492709     1.923594256     1.922335976     1.921556961     1.921040764     1.920700904     1.920487951     1.920360851     1.920284317    
      1.920232862     1.920191075     1.920152618     1.920118609     1.920091349     1.920081506     1.920076306     1.920083411     1.920110158     1.920160810    
      1.920245312     1.920364195     1.920517635     1.920702547     1.920900446    

 CONCENTRATION WILL BE SAVED ON UNIT 6725 AT END OF TIME STEP  199, STRESS PERIOD    1


  MASS BUDGET FOR ENTIRE MODEL AT END OF TIME STEP  199, STRESS PERIOD   1
  ---------------------------------------------------------------------------------------------------

     CUMULATIVE MASS      M       RATES FOR THIS TIME STEP      M/T          PACKAGE NAME    
     ------------------                 ------------------------                     ----------------

           IN:                                      IN:
           ---                                      ---
     STORAGE-AQUEOUS =           1.8097       STORAGE-AQUEOUS =       2.4864E-04     MST                              
                 CHD =         257.9350                   CHD =           0.1296     SSM_CHD                          
                 CNC =         563.5284                   CNC =           0.2832     CNC                              

            TOTAL IN =         823.2732              TOTAL IN =           0.4131

          OUT:                                     OUT:
          ----                                     ----
     STORAGE-AQUEOUS =          25.3206       STORAGE-AQUEOUS =       1.2874E-02     MST                              
                 CHD =         797.9268                   CHD =           0.4002     SSM_CHD                          
                 CNC =       2.5797E-02                   CNC =           0.0000     CNC                              

           TOTAL OUT =         823.2732             TOTAL OUT =           0.4131

            IN - OUT =       7.1844E-06              IN - OUT =       3.7296E-09

 PERCENT DISCREPANCY =           0.00     PERCENT DISCREPANCY =           0.00




         TIME SUMMARY AT END OF TIME STEP  199 IN STRESS PERIOD    1
                    SECONDS     MINUTES      HOURS       DAYS        YEARS
                    -----------------------------------------------------------
   TIME STEP LENGTH 8.64000E+05  14400.      240.00      10.000     2.73785E-02
 STRESS PERIOD TIME 1.71936E+08 2.86560E+06  47760.      1990.0      5.4483    
         TOTAL TIME 1.71936E+08 2.86560E+06  47760.      1990.0      5.4483    


end timestep


start timestep kper="1" kstp="200" mode="normal"

 UBDSV06 SAVING  SOURCE-SINK MIX IN MODEL SI               PACKAGE SI              CONNECTED TO MODEL SI               PACKAGE SSM              ON UNIT   6724 AT TIME STEP    200, STRESS PERIOD      1
 UBDSV06 SAVING              CNC IN MODEL SI               PACKAGE SI              CONNECTED TO MODEL SI               PACKAGE CNC              ON UNIT   6724 AT TIME STEP    200, STRESS PERIOD      1

 SSM PACKAGE (SSM) FLOW RATES   PERIOD      1   STEP      200
 ------------------------------------------------------------------------------------------------
   NUMBER   CELLID                   BOUND Q        SSM CONC          RATE         PACKAGE NAME  
 ------------------------------------------------------------------------------------------------
     1      (1,1,1)               2.08333330E-02  2.0738495       4.32051966E-02       CHD       
     2      (2,1,1)               2.08333330E-02  2.0738495       4.32051966E-02       CHD       
     3      (3,1,1)               2.08333330E-02  2.0738495       4.32051966E-02       CHD       
     4      (4,1,1)               0.0000000       0.0000000       0.0000000            CHD       
     5      (5,1,1)               0.0000000       0.0000000       0.0000000            CHD       
     6      (6,1,1)               0.0000000       0.0000000       0.0000000            CHD       
     7      (7,1,1)               0.0000000       0.0000000       0.0000000            CHD       
     8      (8,1,1)               0.0000000       0.0000000       0.0000000            CHD       
     9      (9,1,1)               0.0000000       0.0000000       0.0000000            CHD       
     10     (10,1,1)              0.0000000       0.0000000       0.0000000            CHD       
     11     (1,1,25)             -2.08333337E-02  1.9208676      -4.00180754E-02       CHD       
     12     (2,1,25)             -2.08333337E-02  1.9208676      -4.00180754E-02       CHD       
     13     (3,1,25)             -2.08333337E-02  1.9208676      -4.00180754E-02       CHD       
     14     (4,1,25)             -2.08333337E-02  1.9208676      -4.00180754E-02       CHD       
     15     (5,1,25)             -2.08333337E-02  1.9208676      -4.00180754E-02       CHD       
     16     (6,1,25)             -2.08333337E-02  1.9208676      -4.00180754E-02       CHD       
     17     (7,1,25)             -2.08333337E-02  1.9208676      -4.00180754E-02       CHD       
     18     (8,1,25)             -2.08333337E-02  1.9208676      -4.00180754E-02       CHD       
     19     (9,1,25)             -2.08333337E-02  1.9208676      -4.00180754E-02       CHD       
     20     (10,1,25)            -2.08333337E-02  1.9208676      -4.00180754E-02       CHD       
 ------------------------------------------------------------------------------------------------




 CNC PACKAGE (CNC) FLOW RATES   PERIOD      1   STEP      200
 -----------------------------------------------
   NUMBER   CELLID                    RATE      
 -----------------------------------------------
     1      (4,1,1)               4.07124641E-02
     2      (5,1,1)               4.04412718E-02
     3      (6,1,1)               4.04268741E-02
     4      (7,1,1)               4.04132942E-02
     5      (8,1,1)               4.04051556E-02
     6      (9,1,1)               4.04004819E-02
     7      (10,1,1)              4.03984053E-02
 -----------------------------------------------



1
  CONCENTRATION IN LAYER   1 AT END OF TIME STEP 200 IN STRESS PERIOD    1
  ---------------------------------------------------------------------------

                1               2               3               4               5               6               7               8               9              10
               11              12              13              14              15              16              17              18              19              20
               21              22              23              24              25
 ................................................................................................................................................................
   1  1.929660064     1.917687091     1.917865007     1.918739692     1.919689532     1.919954787     1.920118153     1.920192946     1.920213564     1.920211802    
      1.920195075     1.920174139     1.920148277     1.920119425     1.920093164     1.920082823     1.920076869     1.920082637     1.920107126     1.920153843    
      1.920233905     1.920347848     1.920495913     1.920675173     1.920867590    
1
  CONCENTRATION IN LAYER   2 AT END OF TIME STEP 200 IN STRESS PERIOD    1
  ---------------------------------------------------------------------------

                1               2               3               4               5               6               7               8               9              10
               11              12              13              14              15              16              17              18              19              20
               21              22              23              24              25
 ................................................................................................................................................................
   1  1.930959413     1.918583169     1.918207996     1.918908805     1.919796317     1.920022219     1.920152495     1.920208913     1.920221156     1.920215597    
      1.920197328     1.920175246     1.920148734     1.920119613     1.920093238     1.920082903     1.920076924     1.920082670     1.920107141     1.920153848    
      1.920233906     1.920347848     1.920495913     1.920675173     1.920867590    
1
  CONCENTRATION IN LAYER   3 AT END OF TIME STEP 200 IN STRESS PERIOD    1
  ---------------------------------------------------------------------------

                1               2               3               4               5               6               7               8               9              10
               11              12              13              14              15              16              17              18              19              20
               21              22              23              24              25
 ................................................................................................................................................................
   1  1.933047932     1.920124887     1.918811933     1.919278456     1.919995108     1.920146069     1.920215682     1.920238901     1.920235710     1.920222772    
      1.920201538     1.920177317     1.920149605     1.920119976     1.920093382     1.920083058     1.920077030     1.920082734     1.920107171     1.920153856    
      1.920233907     1.920347847     1.920495912     1.920675173     1.920867590    
1
  CONCENTRATION IN LAYER   4 AT END OF TIME STEP 200 IN STRESS PERIOD    1
  ---------------------------------------------------------------------------

                1               2               3               4               5               6               7               8               9              10
               11              12              13              14              15              16              17              18              19              20
               21              22              23              24              25
 ................................................................................................................................................................
   1  1.934263440     1.921815782     1.919575284     1.919920113     1.920268587     1.920303613     1.920298105     1.920279507     1.920255901     1.920232673    
      1.920207130     1.920180101     1.920150805     1.920120482     1.920093582     1.920083272     1.920077176     1.920082821     1.920107212     1.920153868    
      1.920233909     1.920347846     1.920495911     1.920675172     1.920867590    
1
  CONCENTRATION IN LAYER   5 AT END OF TIME STEP 200 IN STRESS PERIOD    1
  ---------------------------------------------------------------------------

                1               2               3               4               5               6               7               8               9              10
               11              12              13              14              15              16              17              18              19              20
               21              22              23              24              25
 ................................................................................................................................................................
   1  1.934263440     1.923195218     1.920395136     1.920488437     1.920558387     1.920476242     1.920390606     1.920326171     1.920279439     1.920244455    
      1.920213503     1.920183303     1.920152211     1.920121084     1.920093823     1.920083526     1.920077348     1.920082924     1.920107260     1.920153882    
      1.920233912     1.920347845     1.920495910     1.920675172     1.920867590    
1
  CONCENTRATION IN LAYER   6 AT END OF TIME STEP 200 IN STRESS PERIOD    1
  ---------------------------------------------------------------------------

                1               2               3               4               5               6               7               8               9              10
               11              12              13              14              15              16              17              18              19              20
               21              22              23              24              25
 ................................................................................................................................................................
   1  1.934263440     1.924300964     1.921259133     1.921025004     1.920843953     1.920643168     1.920482958     1.920374314     1.920304038     1.920256911    
      1.920220114     1.920186631     1.920153668     1.920121718     1.920094081     1.920083797     1.920077529     1.920083033     1.920107311     1.920153897    
      1.920233915     1.920347842     1.920495908     1.920675171     1.920867590    
1
  CONCENTRATION IN LAYER   7 AT END OF TIME STEP 200 IN STRESS PERIOD    1
  ---------------------------------------------------------------------------

                1               2               3               4               5               6               7               8               9              10
               11              12              13              14              15              16              17              18              19              20
               21              22              23              24              25
 ................................................................................................................................................................
   1  1.934263440     1.925343903     1.922256484     1.921514376     1.921104233     1.920792720     1.920567165     1.920419284     1.920327302     1.920268778    
      1.920226369     1.920189803     1.920155013     1.920122314     1.920094330     1.920084057     1.920077703     1.920083136     1.920107359     1.920153911    
      1.920233918     1.920347834     1.920495905     1.920675171     1.920867590    
1
  CONCENTRATION IN LAYER   8 AT END OF TIME STEP 200 IN STRESS PERIOD    1
  ---------------------------------------------------------------------------

                1               2               3               4               5               6               7               8               9              10
               11              12              13              14              15              16              17              18              19              20
               21              22              23              24              25
 ................................................................................................................................................................
   1  1.934263440     1.925968941     1.922984665     1.921911378     1.921319406     1.920915006     1.920636566     1.920456969     1.920346997     1.920278876    
      1.920231665     1.920192545     1.920156115     1.920122812     1.920094545     1.920084280     1.920077851     1.920083224     1.920107400     1.920153924    
      1.920233920     1.920347815     1.920495902     1.920675170     1.920867589    
1
  CONCENTRATION IN LAYER   9 AT END OF TIME STEP 200 IN STRESS PERIOD    1
  ---------------------------------------------------------------------------

                1               2               3               4               5               6               7               8               9              10
               11              12              13              14              15              16              17              18              19              20
               21              22              23              24              25
 ................................................................................................................................................................
   1  1.934263440     1.926327884     1.923398885     1.922185037     1.921472854     1.921001724     1.920685907     1.920484052     1.920361254     1.920286211    
      1.920235501     1.920194564     1.920156895     1.920123168     1.920094703     1.920084444     1.920077959     1.920083288     1.920107429     1.920153933    
      1.920233921     1.920347768     1.920495897     1.920675170     1.920867589    
1
  CONCENTRATION IN LAYER  10 AT END OF TIME STEP 200 IN STRESS PERIOD    1
  ---------------------------------------------------------------------------

                1               2               3               4               5               6               7               8               9              10
               11              12              13              14              15              16              17              18              19              20
               21              22              23              24              25
 ................................................................................................................................................................
   1  1.934263440     1.926487369     1.923589513     1.922323822     1.921552570     1.921046720     1.920711524     1.920498197     1.920368733     1.920290067    
      1.920237514     1.920195633     1.920157298     1.920123353     1.920094787     1.920084531     1.920078016     1.920083322     1.920107445     1.920153938    
      1.920233922     1.920347805     1.920495898     1.920675170     1.920867589    

 CONCENTRATION WILL BE SAVED ON UNIT 6725 AT END OF TIME STEP  200, STRESS PERIOD    1


  MASS BUDGET FOR ENTIRE MODEL AT END OF TIME STEP  200, STRESS PERIOD   1
  ---------------------------------------------------------------------------------------------------

     CUMULATIVE MASS      M       RATES FOR THIS TIME STEP      M/T          PACKAGE NAME    
     ------------------                 ------------------------                     ----------------

           IN:                                      IN:
           ---                                      ---
     STORAGE-AQUEOUS =           1.8123       STORAGE-AQUEOUS =       2.5957E-04     MST                              
                 CHD =         259.2312                   CHD =           0.1296     SSM_CHD                          
                 CNC =         566.3604                   CNC =           0.2832     CNC                              

            TOTAL IN =         827.4039              TOTAL IN =           0.4131

          OUT:                                     OUT:
          ----                                     ----
     STORAGE-AQUEOUS =          25.4495       STORAGE-AQUEOUS =       1.2892E-02     MST                              
                 CHD =         801.9286                   CHD =           0.4002     SSM_CHD                          
                 CNC =       2.5797E-02                   CNC =           0.0000     CNC                              

           TOTAL OUT =         827.4039             TOTAL OUT =           0.4131

            IN - OUT =       7.2215E-06              IN - OUT =       3.7099E-09

 PERCENT DISCREPANCY =           0.00     PERCENT DISCREPANCY =           0.00




         TIME SUMMARY AT END OF TIME STEP  200 IN STRESS PERIOD    1
                    SECONDS     MINUTES      HOURS       DAYS        YEARS
                    -----------------------------------------------------------
   TIME STEP LENGTH 8.64000E+05  14400.      240.00      10.000     2.73785E-02
 STRESS PERIOD TIME 1.72800E+08 2.88000E+06  48000.      2000.0      5.4757    
         TOTAL TIME 1.72800E+08 2.88000E+06  48000.      2000.0      5.4757    


end timestep

