                                   MODFLOW 6
                U.S. GEOLOGICAL SURVEY MODULAR HYDROLOGIC MODEL
                       GROUNDWATER TRANSPORT MODEL (GWT)
                VERSION 6.5.0.dev0+prt (preliminary) 10/07/2023
                               ***DEVELOP MODE***

   MODFLOW 6 compiled Oct 07 2023 02:19:02 with Intel(R) Fortran Intel(R) 64
   Compiler Classic for applications running on Intel(R) 64, Version 2021.7.0
                             Build 20220726_000000

This software is preliminary or provisional and is subject to 
revision. It is being provided to meet the need for timely best 
science. The software has not received final approval by the U.S. 
Geological Survey (USGS). No warranty, expressed or implied, is made 
by the USGS or the U.S. Government as to the functionality of the 
software and related material nor shall the fact of release 
constitute any such warranty. The software is provided on the 
condition that neither the USGS nor the U.S. Government shall be held 
liable for any damages resulting from the authorized or unauthorized 
use of the software.


As a work of the United States Government, this USGS product is 
in the public domain within the United States. You can copy, 
modify, distribute, and perform the work, even for commercial 
purposes, all without asking permission. Additionally, USGS 
waives copyright and related rights in the work worldwide 
through CC0 1.0 Universal Public Domain Dedication 
(https://creativecommons.org/publicdomain/zero/1.0/).

The following GNU Lesser General Public License (LGPL) libraries
are used in this USGS product:

    SPARSKIT version 2.0
      ilut, luson, and qsplit 
      (https://www-users.cse.umn.edu/~saad/software/SPARSKIT/)

    RCM - Reverse Cuthill McKee Ordering
      (https://people.math.sc.edu/Burkardt/f_src/rcm/rcm.html)

    BLAS - Basic Linear Algebra Subprograms Level 1
      (https://people.math.sc.edu/Burkardt/f_src/blas1_d/blas1_d.html)

    SPARSEKIT - Sparse Matrix Utility Package
      amux, dperm, dvperm, rperm, and cperm
      (https://people.sc.fsu.edu/~jburkardt/f77_src/sparsekit/sparsekit.html)

The following BSD-3 License libraries are used in this USGS product:

    Modern Fortran DAG Library
      Copyright (c) 2018, Jacob Williams
      All rights reserved.
      (https://github.com/jacobwilliams/daglib)

MODFLOW 6 compiler options: /Isrc\libmf6core.a.p /Isrc /I..\src
/Isrc\libmf6_external.a.p /MTd /nologo /warn:general /warn:truncated_source
/stand:f08 /Zi /traceback /O2 /fpe:0 /heap-arrays:0 /traceback /fpp
/Qdiag-disable:7416 /Qdiag-disable:7025 /Qdiag-disable:5268
/Fdsrc\libmf6core.a.p\Utilities_compilerversion.F90.pdb
/module:src\libmf6core.a.p
/Fosrc/libmf6core.a.p/Utilities_compilerversion.F90.obj /c

System command used to initiate simulation:
c:\Users\portega\anaconda3\envs\mf6rtm\python.exe -m ipykernel_launcher --f=c:\Users\portega\AppData\Roaming\jupyter\runtime\kernel-v2-51408na7dKTn0i5X.json

MODFLOW was compiled using uniform precision.

Real Variables
  KIND: 8
  TINY (smallest non-zero value):    2.225074-308
  HUGE (largest value):    1.797693+308
  PRECISION: 15
  SIZE IN BITS: 64

Integer Variables
  KIND: 4
  HUGE (largest value): 2147483647
  SIZE IN BITS: 32

Long Integer Variables
  KIND: 8
  HUGE (largest value): 9223372036854775807
  SIZE IN BITS: 64

Logical Variables
  KIND: 4
  SIZE IN BITS: 32
 
 NAMEFILE OPTIONS:
 END NAMEFILE OPTIONS:

 DIS -- STRUCTURED GRID DISCRETIZATION PACKAGE, VERSION 2 : 3/27/2014 - INPUT READ FROM MEMPATH: __INPUT__/SI/DIS                                  


 DSP-- DISPERSION PACKAGE, VERSION 1, 1/24/2018 INPUT READ FROM MEMPATH: __INPUT__/SI/DSP                                  


 Setting Discretization Options
    Model length unit [0=UND, 1=FEET, 2=METERS, 3=CENTIMETERS] set as 2
 End Setting Discretization Options

 Setting Discretization Dimensions
    NLAY = 10
    NROW = 1
    NCOL = 25
 End Setting Discretization Dimensions

 Setting Discretization Griddata
    DELR set from input file
    DELC set from input file
    TOP set from input file
    BOTM set from input file
    IDOMAIN set from input file
 End Setting Discretization Griddata


 FMI -- FLOW MODEL INTERFACE,' VERSION 2, 8/17/2023
  FLOWS PROVIDED BY A GWF MODEL IN THIS SIMULATION

 ADV-- ADVECTION PACKAGE, VERSION 1, 8/25/2017 INPUT READ FROM UNIT 13369


 # File generated by Flopy version 3.5.0.dev0 on 07/04/2024 at 16:27:57.
 PROCESSING ADVECTION OPTIONS
    ADVECTION WEIGHTING SCHEME HAS BEEN SET TO: TVD
 END OF ADVECTION OPTIONS
 Setting DSP Options
    XT3D formulation [0=INACTIVE, 1=ACTIVE, 3=ACTIVE RHS] set to: 0
 End Setting DSP Options

 Setting DSP Griddata
    ALH set from input file
    ATH1 set from input file
    ATV set from input file
 End Setting DSP Griddata


 CNC   -- CNC PACKAGE, VERSION 8, 2/22/2014 INPUT READ FROM UNIT 13403
 # File generated by Flopy version 3.5.0.dev0 on 07/04/2024 at 16:27:57.

 PROCESSING CNC OPTIONS
    CNC FLOWS WILL BE PRINTED TO LISTING FILE.
    FLOWS WILL BE SAVED TO BUDGET FILE SPECIFIED IN OUTPUT CONTROL
 END OF CNC OPTIONS

 PROCESSING CNC DIMENSIONS
    MAXBOUND =       7
 END OF CNC DIMENSIONS

 IC -- INITIAL CONDITIONS PACKAGE, VERSION 8, 3/28/2015 INPUT READ FROM UNIT 13367
 # File generated by Flopy version 3.5.0.dev0 on 07/04/2024 at 16:27:57.
 PROCESSING GRIDDATA

 OPENED Si.ic_strt_layer1.txt
 FILE TYPE:OPEN/CLOSE   UNIT ****   STATUS:OLD                 
 FORMAT:FORMATTED              ACCESS:SEQUENTIAL          
 ACTION:READ                


 OPENED Si.ic_strt_layer2.txt
 FILE TYPE:OPEN/CLOSE   UNIT ****   STATUS:OLD                 
 FORMAT:FORMATTED              ACCESS:SEQUENTIAL          
 ACTION:READ                


 OPENED Si.ic_strt_layer3.txt
 FILE TYPE:OPEN/CLOSE   UNIT ****   STATUS:OLD                 
 FORMAT:FORMATTED              ACCESS:SEQUENTIAL          
 ACTION:READ                


 OPENED Si.ic_strt_layer4.txt
 FILE TYPE:OPEN/CLOSE   UNIT ****   STATUS:OLD                 
 FORMAT:FORMATTED              ACCESS:SEQUENTIAL          
 ACTION:READ                


 OPENED Si.ic_strt_layer5.txt
 FILE TYPE:OPEN/CLOSE   UNIT ****   STATUS:OLD                 
 FORMAT:FORMATTED              ACCESS:SEQUENTIAL          
 ACTION:READ                


 OPENED Si.ic_strt_layer6.txt
 FILE TYPE:OPEN/CLOSE   UNIT ****   STATUS:OLD                 
 FORMAT:FORMATTED              ACCESS:SEQUENTIAL          
 ACTION:READ                


 OPENED Si.ic_strt_layer7.txt
 FILE TYPE:OPEN/CLOSE   UNIT ****   STATUS:OLD                 
 FORMAT:FORMATTED              ACCESS:SEQUENTIAL          
 ACTION:READ                


 OPENED Si.ic_strt_layer8.txt
 FILE TYPE:OPEN/CLOSE   UNIT ****   STATUS:OLD                 
 FORMAT:FORMATTED              ACCESS:SEQUENTIAL          
 ACTION:READ                


 OPENED Si.ic_strt_layer9.txt
 FILE TYPE:OPEN/CLOSE   UNIT ****   STATUS:OLD                 
 FORMAT:FORMATTED              ACCESS:SEQUENTIAL          
 ACTION:READ                


 OPENED Si.ic_strt_layer10.txt
 FILE TYPE:OPEN/CLOSE   UNIT ****   STATUS:OLD                 
 FORMAT:FORMATTED              ACCESS:SEQUENTIAL          
 ACTION:READ                

 END PROCESSING GRIDDATA

 MST -- MOBILE STORAGE AND TRANSFER PACKAGE, VERSION 1, 7/29/2020 INPUT READ FROM UNIT 13368


 # File generated by Flopy version 3.5.0.dev0 on 07/04/2024 at 16:27:57.
 PROCESSING MOBILE STORAGE AND TRANSFER OPTIONS
 END OF MOBILE STORAGE AND TRANSFER OPTIONS
 PROCESSING GRIDDATA

 OPENED Si.mst_porosity.txt
 FILE TYPE:OPEN/CLOSE   UNIT ****   STATUS:OLD                 
 FORMAT:FORMATTED              ACCESS:SEQUENTIAL          
 ACTION:READ                

 END PROCESSING GRIDDATA

 SSM -- SOURCE-SINK MIXING PACKAGE, VERSION 1, 8/25/2017 INPUT READ FROM UNIT 13401


 # File generated by Flopy version 3.5.0.dev0 on 07/04/2024 at 16:27:57.
 PROCESSING SSM OPTIONS
    SSM FLOW INFORMATION WILL BE PRINTED TO LISTING FILE WHENEVER ICBCFL IS NOT ZERO.
    CELL-BY-CELL FLOW INFORMATION WILL BE SAVED TO BINARY FILE WHENEVER ICBCFL IS NOT ZERO.
 END OF SSM OPTIONS

 OPENED Si.ssm_sources.txt
 FILE TYPE:OPEN/CLOSE   UNIT ****   STATUS:OLD                 
 FORMAT:FORMATTED              ACCESS:SEQUENTIAL          
 ACTION:READ                

 PROCESSING SOURCES
 AUX SOURCE DETECTED.
    USING AUX COLUMN 14 IN PACKAGE CHDTAIL
 END PROCESSING SOURCES
 OPTIONAL FILEINPUT BLOCK NOT FOUND.  CONTINUING.
      THE LAST TIME STEP WILL BE PRINTED
      THE LAST TIME STEP WILL BE PRINTED
 # File generated by Flopy version 3.5.0.dev0 on 07/04/2024 at 16:27:57.

 PROCESSING OC OPTIONS

    BUDGET INFORMATION WILL BE WRITTEN TO:
      UNIT NUMBER: 13634
      FILE NAME: Si.cbb

 OPENED Si.cbb
 FILE TYPE:DATA(BINARY)   UNIT ****   STATUS:REPLACE             
 FORMAT:UNFORMATTED            ACCESS:STREAM              
 ACTION:READWRITE           

    CONCENTRATION INFORMATION WILL BE WRITTEN TO:
      UNIT NUMBER: 13635
      FILE NAME: Si.ucn

 OPENED Si.ucn
 FILE TYPE:DATA(BINARY)   UNIT ****   STATUS:REPLACE             
 FORMAT:UNFORMATTED            ACCESS:STREAM              
 ACTION:READWRITE           

 END OF OC OPTIONS

start timestep kper="1" kstp="1" mode="normal"


 BEGIN READING OUTPUT CONTROL FOR STRESS PERIOD 1
      ALL TIME STEPS WILL BE SAVED
      ALL TIME STEPS WILL BE PRINTED

 END READING OUTPUT CONTROL FOR STRESS PERIOD 1

 OPENED Si.cnc_stress_period_data_1.txt
 FILE TYPE:OPEN/CLOSE   UNIT ****   STATUS:OLD                 
 FORMAT:FORMATTED              ACCESS:SEQUENTIAL          
 ACTION:READ                

1
  CONCENTRATION IN LAYER   1 AT END OF TIME STEP   1 IN STRESS PERIOD    1
  ---------------------------------------------------------------------------

                1               2               3               4               5               6               7               8               9              10
               11              12              13              14              15              16              17              18              19              20
               21              22              23              24              25
 ................................................................................................................................................................
   1  1.962178075     1.935644293     1.927121089     1.925967430     1.925845267     1.925832843     1.925831479     1.925831324     1.925831322     1.925831331    
      1.925831334     1.925831327     1.925831315     1.925831308     1.925831309     1.925831311     1.925831311     1.925831309     1.925831307     1.925831307    
      1.925831309     1.925831312     1.925831314     1.925831318     1.925831320    
1
  CONCENTRATION IN LAYER   2 AT END OF TIME STEP   1 IN STRESS PERIOD    1
  ---------------------------------------------------------------------------

                1               2               3               4               5               6               7               8               9              10
               11              12              13              14              15              16              17              18              19              20
               21              22              23              24              25
 ................................................................................................................................................................
   1  1.959366879     1.934515546     1.926971378     1.925955535     1.925844421     1.925832782     1.925831472     1.925831316     1.925831322     1.925831343    
      1.925831346     1.925831331     1.925831308     1.925831298     1.925831300     1.925831304     1.925831303     1.925831299     1.925831296     1.925831297    
      1.925831301     1.925831306     1.925831311     1.925831317     1.925831320    
1
  CONCENTRATION IN LAYER   3 AT END OF TIME STEP   1 IN STRESS PERIOD    1
  ---------------------------------------------------------------------------

                1               2               3               4               5               6               7               8               9              10
               11              12              13              14              15              16              17              18              19              20
               21              22              23              24              25
 ................................................................................................................................................................
   1  1.950575138     1.931940358     1.926707869     1.925936470     1.925842997     1.925832666     1.925831458     1.925831304     1.925831323     1.925831361    
      1.925831365     1.925831336     1.925831297     1.925831281     1.925831286     1.925831293     1.925831291     1.925831284     1.925831279     1.925831281    
      1.925831288     1.925831297     1.925831305     1.925831316     1.925831319    
1
  CONCENTRATION IN LAYER   4 AT END OF TIME STEP   1 IN STRESS PERIOD    1
  ---------------------------------------------------------------------------

                1               2               3               4               5               6               7               8               9              10
               11              12              13              14              15              16              17              18              19              20
               21              22              23              24              25
 ................................................................................................................................................................
   1  1.925831320     1.927979206     1.926446717     1.925917841     1.925841300     1.925832504     1.925831437     1.925831292     1.925831323     1.925831378    
      1.925831382     1.925831341     1.925831288     1.925831267     1.925831276     1.925831286     1.925831283     1.925831272     1.925831265     1.925831268    
      1.925831278     1.925831290     1.925831300     1.925831314     1.925831319    
1
  CONCENTRATION IN LAYER   5 AT END OF TIME STEP   1 IN STRESS PERIOD    1
  ---------------------------------------------------------------------------

                1               2               3               4               5               6               7               8               9              10
               11              12              13              14              15              16              17              18              19              20
               21              22              23              24              25
 ................................................................................................................................................................
   1  1.925831320     1.926589259     1.926158334     1.925892928     1.925839308     1.925832316     1.925831415     1.925831284     1.925831323     1.925831388    
      1.925831392     1.925831345     1.925831283     1.925831261     1.925831271     1.925831284     1.925831279     1.925831267     1.925831258     1.925831262    
      1.925831272     1.925831286     1.925831297     1.925831312     1.925831319    
1
  CONCENTRATION IN LAYER   6 AT END OF TIME STEP   1 IN STRESS PERIOD    1
  ---------------------------------------------------------------------------

                1               2               3               4               5               6               7               8               9              10
               11              12              13              14              15              16              17              18              19              20
               21              22              23              24              25
 ................................................................................................................................................................
   1  1.925831320     1.926099761     1.925985498     1.925870004     1.925837237     1.925832119     1.925831393     1.925831282     1.925831323     1.925831392    
      1.925831396     1.925831347     1.925831283     1.925831260     1.925831271     1.925831284     1.925831280     1.925831266     1.925831257     1.925831260    
      1.925831270     1.925831284     1.925831296     1.925831312     1.925831319    
1
  CONCENTRATION IN LAYER   7 AT END OF TIME STEP   1 IN STRESS PERIOD    1
  ---------------------------------------------------------------------------

                1               2               3               4               5               6               7               8               9              10
               11              12              13              14              15              16              17              18              19              20
               21              22              23              24              25
 ................................................................................................................................................................
   1  1.925831320     1.925926779     1.925899311     1.925853432     1.925835406     1.925831936     1.925831374     1.925831282     1.925831323     1.925831389    
      1.925831393     1.925831346     1.925831285     1.925831262     1.925831273     1.925831286     1.925831282     1.925831269     1.925831259     1.925831262    
      1.925831272     1.925831285     1.925831296     1.925831312     1.925831319    
1
  CONCENTRATION IN LAYER   8 AT END OF TIME STEP   1 IN STRESS PERIOD    1
  ---------------------------------------------------------------------------

                1               2               3               4               5               6               7               8               9              10
               11              12              13              14              15              16              17              18              19              20
               21              22              23              24              25
 ................................................................................................................................................................
   1  1.925831320     1.925865525     1.925860210     1.925843215     1.925834010     1.925831785     1.925831360     1.925831286     1.925831323     1.925831383    
      1.925831386     1.925831344     1.925831289     1.925831268     1.925831278     1.925831289     1.925831285     1.925831274     1.925831265     1.925831267    
      1.925831276     1.925831288     1.925831298     1.925831312     1.925831319    
1
  CONCENTRATION IN LAYER   9 AT END OF TIME STEP   1 IN STRESS PERIOD    1
  ---------------------------------------------------------------------------

                1               2               3               4               5               6               7               8               9              10
               11              12              13              14              15              16              17              18              19              20
               21              22              23              24              25
 ................................................................................................................................................................
   1  1.925831320     1.925844019     1.925843751     1.925837711     1.925833098     1.925831673     1.925831353     1.925831294     1.925831323     1.925831370    
      1.925831373     1.925831340     1.925831295     1.925831278     1.925831285     1.925831294     1.925831292     1.925831282     1.925831275     1.925831277    
      1.925831284     1.925831294     1.925831302     1.925831313     1.925831319    
1
  CONCENTRATION IN LAYER  10 AT END OF TIME STEP   1 IN STRESS PERIOD    1
  ---------------------------------------------------------------------------

                1               2               3               4               5               6               7               8               9              10
               11              12              13              14              15              16              17              18              19              20
               21              22              23              24              25
 ................................................................................................................................................................
   1  1.925831320     1.925837162     1.925837948     1.925835329     1.925832631     1.925831603     1.925831356     1.925831308     1.925831320     1.925831344    
      1.925831348     1.925831333     1.925831309     1.925831298     1.925831300     1.925831305     1.925831305     1.925831300     1.925831296     1.925831297    
      1.925831300     1.925831305     1.925831310     1.925831316     1.925831319    

 CONCENTRATION WILL BE SAVED ON UNIT **** AT END OF TIME STEP    1, STRESS PERIOD    1



         TIME SUMMARY AT END OF TIME STEP    1 IN STRESS PERIOD    1
                    SECONDS     MINUTES      HOURS       DAYS        YEARS
                    -----------------------------------------------------------
   TIME STEP LENGTH 1.72800E+06  28800.      480.00      20.000     5.47570E-02
 STRESS PERIOD TIME 1.72800E+06  28800.      480.00      20.000     5.47570E-02
         TOTAL TIME 1.72800E+06  28800.      480.00      20.000     5.47570E-02


end timestep


start timestep kper="1" kstp="2" mode="normal"

1
  CONCENTRATION IN LAYER   1 AT END OF TIME STEP   2 IN STRESS PERIOD    1
  ---------------------------------------------------------------------------

                1               2               3               4               5               6               7               8               9              10
               11              12              13              14              15              16              17              18              19              20
               21              22              23              24              25
 ................................................................................................................................................................
   1  1.980733736     1.947057985     1.930103467     1.926467727     1.925915831     1.925842102     1.925832722     1.925831493     1.925831349     1.925831333    
      1.925831329     1.925831325     1.925831316     1.925831307     1.925831302     1.925831299     1.925831297     1.925831295     1.925831294     1.925831295    
      1.925831298     1.925831302     1.925831307     1.925831314     1.925831319    
1
  CONCENTRATION IN LAYER   2 AT END OF TIME STEP   2 IN STRESS PERIOD    1
  ---------------------------------------------------------------------------

                1               2               3               4               5               6               7               8               9              10
               11              12              13              14              15              16              17              18              19              20
               21              22              23              24              25
 ................................................................................................................................................................
   1  1.975146294     1.944362235     1.929608541     1.926414655     1.925910947     1.925841632     1.925832678     1.925831500     1.925831356     1.925831333    
      1.925831325     1.925831321     1.925831313     1.925831303     1.925831295     1.925831289     1.925831285     1.925831283     1.925831283     1.925831285    
      1.925831290     1.925831296     1.925831303     1.925831313     1.925831318    
1
  CONCENTRATION IN LAYER   3 AT END OF TIME STEP   2 IN STRESS PERIOD    1
  ---------------------------------------------------------------------------

                1               2               3               4               5               6               7               8               9              10
               11              12              13              14              15              16              17              18              19              20
               21              22              23              24              25
 ................................................................................................................................................................
   1  1.960061774     1.938746377     1.928755058     1.926327996     1.925902581     1.925840766     1.925832591     1.925831512     1.925831367     1.925831333    
      1.925831318     1.925831316     1.925831309     1.925831298     1.925831284     1.925831273     1.925831267     1.925831266     1.925831267     1.925831271    
      1.925831277     1.925831285     1.925831296     1.925831310     1.925831318    
1
  CONCENTRATION IN LAYER   4 AT END OF TIME STEP   2 IN STRESS PERIOD    1
  ---------------------------------------------------------------------------

                1               2               3               4               5               6               7               8               9              10
               11              12              13              14              15              16              17              18              19              20
               21              22              23              24              25
 ................................................................................................................................................................
   1  1.925831320     1.931110302     1.927863191     1.926235855     1.925892333     1.925839621     1.925832468     1.925831518     1.925831376     1.925831334    
      1.925831313     1.925831313     1.925831307     1.925831294     1.925831275     1.925831260     1.925831251     1.925831251     1.925831253     1.925831258    
      1.925831265     1.925831276     1.925831289     1.925831307     1.925831317    
1
  CONCENTRATION IN LAYER   5 AT END OF TIME STEP   2 IN STRESS PERIOD    1
  ---------------------------------------------------------------------------

                1               2               3               4               5               6               7               8               9              10
               11              12              13              14              15              16              17              18              19              20
               21              22              23              24              25
 ................................................................................................................................................................
   1  1.925831320     1.927956977     1.926977171     1.926123801     1.925880484     1.925838321     1.925832321     1.925831512     1.925831379     1.925831335    
      1.925831312     1.925831312     1.925831307     1.925831292     1.925831270     1.925831252     1.925831243     1.925831242     1.925831245     1.925831250    
      1.925831258     1.925831270     1.925831284     1.925831305     1.925831317    
1
  CONCENTRATION IN LAYER   6 AT END OF TIME STEP   2 IN STRESS PERIOD    1
  ---------------------------------------------------------------------------

                1               2               3               4               5               6               7               8               9              10
               11              12              13              14              15              16              17              18              19              20
               21              22              23              24              25
 ................................................................................................................................................................
   1  1.925831320     1.926678043     1.926412099     1.926020901     1.925868231     1.925836974     1.925832166     1.925831497     1.925831379     1.925831336    
      1.925831312     1.925831313     1.925831308     1.925831292     1.925831270     1.925831251     1.925831241     1.925831240     1.925831243     1.925831248    
      1.925831256     1.925831268     1.925831282     1.925831304     1.925831317    
1
  CONCENTRATION IN LAYER   7 AT END OF TIME STEP   2 IN STRESS PERIOD    1
  ---------------------------------------------------------------------------

                1               2               3               4               5               6               7               8               9              10
               11              12              13              14              15              16              17              18              19              20
               21              22              23              24              25
 ................................................................................................................................................................
   1  1.925831320     1.926166090     1.926107137     1.925944194     1.925857273     1.925835708     1.925832019     1.925831478     1.925831375     1.925831336    
      1.925831314     1.925831314     1.925831309     1.925831294     1.925831272     1.925831254     1.925831244     1.925831243     1.925831245     1.925831251    
      1.925831258     1.925831270     1.925831283     1.925831304     1.925831317    
1
  CONCENTRATION IN LAYER   8 AT END OF TIME STEP   2 IN STRESS PERIOD    1
  ---------------------------------------------------------------------------

                1               2               3               4               5               6               7               8               9              10
               11              12              13              14              15              16              17              18              19              20
               21              22              23              24              25
 ................................................................................................................................................................
   1  1.925831320     1.925963459     1.925957691     1.925894913     1.925848765     1.925834652     1.925831894     1.925831457     1.925831369     1.925831334    
      1.925831315     1.925831315     1.925831311     1.925831296     1.925831277     1.925831260     1.925831251     1.925831251     1.925831252     1.925831257    
      1.925831263     1.925831274     1.925831286     1.925831305     1.925831317    
1
  CONCENTRATION IN LAYER   9 AT END OF TIME STEP   2 IN STRESS PERIOD    1
  ---------------------------------------------------------------------------

                1               2               3               4               5               6               7               8               9              10
               11              12              13              14              15              16              17              18              19              20
               21              22              23              24              25
 ................................................................................................................................................................
   1  1.925831320     1.925884747     1.925890932     1.925867018     1.925843105     1.925833899     1.925831799     1.925831435     1.925831361     1.925831333    
      1.925831318     1.925831318     1.925831313     1.925831299     1.925831283     1.925831271     1.925831263     1.925831262     1.925831263     1.925831267    
      1.925831272     1.925831281     1.925831291     1.925831307     1.925831317    
1
  CONCENTRATION IN LAYER  10 AT END OF TIME STEP   2 IN STRESS PERIOD    1
  ---------------------------------------------------------------------------

                1               2               3               4               5               6               7               8               9              10
               11              12              13              14              15              16              17              18              19              20
               21              22              23              24              25
 ................................................................................................................................................................
   1  1.925831320     1.925857943     1.925865852     1.925854788     1.925840325     1.925833511     1.925831734     1.925831401     1.925831345     1.925831338    
      1.925831332     1.925831326     1.925831313     1.925831301     1.925831292     1.925831287     1.925831283     1.925831280     1.925831279     1.925831280    
      1.925831284     1.925831291     1.925831298     1.925831309     1.925831317    

 CONCENTRATION WILL BE SAVED ON UNIT **** AT END OF TIME STEP    2, STRESS PERIOD    1



         TIME SUMMARY AT END OF TIME STEP    2 IN STRESS PERIOD    1
                    SECONDS     MINUTES      HOURS       DAYS        YEARS
                    -----------------------------------------------------------
   TIME STEP LENGTH 1.72800E+06  28800.      480.00      20.000     5.47570E-02
 STRESS PERIOD TIME 3.45600E+06  57600.      960.00      40.000     0.10951    
         TOTAL TIME 3.45600E+06  57600.      960.00      40.000     0.10951    


end timestep


start timestep kper="1" kstp="3" mode="normal"

1
  CONCENTRATION IN LAYER   1 AT END OF TIME STEP   3 IN STRESS PERIOD    1
  ---------------------------------------------------------------------------

                1               2               3               4               5               6               7               8               9              10
               11              12              13              14              15              16              17              18              19              20
               21              22              23              24              25
 ................................................................................................................................................................
   1  1.992990861     1.957651549     1.934466673     1.927540598     1.926118730     1.925875461     1.925837790     1.925832255     1.925831457     1.925831348    
      1.925831331     1.925831324     1.925831314     1.925831303     1.925831294     1.925831289     1.925831285     1.925831283     1.925831282     1.925831283    
      1.925831287     1.925831292     1.925831300     1.925831309     1.925831317    
1
  CONCENTRATION IN LAYER   2 AT END OF TIME STEP   3 IN STRESS PERIOD    1
  ---------------------------------------------------------------------------

                1               2               3               4               5               6               7               8               9              10
               11              12              13              14              15              16              17              18              19              20
               21              22              23              24              25
 ................................................................................................................................................................
   1  1.985280901     1.953455609     1.933486320     1.927404411     1.926103035     1.925873641     1.925837573     1.925832232     1.925831457     1.925831348    
      1.925831329     1.925831322     1.925831311     1.925831297     1.925831286     1.925831279     1.925831275     1.925831273     1.925831272     1.925831274    
      1.925831279     1.925831286     1.925831295     1.925831307     1.925831316    
1
  CONCENTRATION IN LAYER   3 AT END OF TIME STEP   3 IN STRESS PERIOD    1
  ---------------------------------------------------------------------------

                1               2               3               4               5               6               7               8               9              10
               11              12              13              14              15              16              17              18              19              20
               21              22              23              24              25
 ................................................................................................................................................................
   1  1.965930945     1.945133199     1.931805206     1.927177707     1.926075606     1.925870283     1.925837157     1.925832188     1.925831456     1.925831348    
      1.925831327     1.925831319     1.925831306     1.925831288     1.925831274     1.925831264     1.925831259     1.925831257     1.925831257     1.925831260    
      1.925831266     1.925831276     1.925831288     1.925831304     1.925831316    
1
  CONCENTRATION IN LAYER   4 AT END OF TIME STEP   3 IN STRESS PERIOD    1
  ---------------------------------------------------------------------------

                1               2               3               4               5               6               7               8               9              10
               11              12              13              14              15              16              17              18              19              20
               21              22              23              24              25
 ................................................................................................................................................................
   1  1.925831320     1.934478731     1.929982473     1.926923651     1.926041183     1.925865791     1.925836587     1.925832123     1.925831452     1.925831349    
      1.925831327     1.925831318     1.925831302     1.925831281     1.925831263     1.925831251     1.925831245     1.925831242     1.925831243     1.925831246    
      1.925831254     1.925831267     1.925831282     1.925831301     1.925831315    
1
  CONCENTRATION IN LAYER   5 AT END OF TIME STEP   3 IN STRESS PERIOD    1
  ---------------------------------------------------------------------------

                1               2               3               4               5               6               7               8               9              10
               11              12              13              14              15              16              17              18              19              20
               21              22              23              24              25
 ................................................................................................................................................................
   1  1.925831320     1.929637081     1.928270930     1.926630492     1.926001580     1.925860630     1.925835924     1.925832044     1.925831446     1.925831349    
      1.925831327     1.925831318     1.925831300     1.925831277     1.925831257     1.925831244     1.925831236     1.925831234     1.925831234     1.925831238    
      1.925831247     1.925831261     1.925831277     1.925831298     1.925831314    
1
  CONCENTRATION IN LAYER   6 AT END OF TIME STEP   3 IN STRESS PERIOD    1
  ---------------------------------------------------------------------------

                1               2               3               4               5               6               7               8               9              10
               11              12              13              14              15              16              17              18              19              20
               21              22              23              24              25
 ................................................................................................................................................................
   1  1.925831320     1.927481407     1.927135393     1.926362325     1.925960795     1.925855235     1.925835231     1.925831957     1.925831437     1.925831349    
      1.925831328     1.925831318     1.925831301     1.925831277     1.925831256     1.925831242     1.925831234     1.925831231     1.925831231     1.925831235    
      1.925831244     1.925831258     1.925831274     1.925831297     1.925831314    
1
  CONCENTRATION IN LAYER   7 AT END OF TIME STEP   3 IN STRESS PERIOD    1
  ---------------------------------------------------------------------------

                1               2               3               4               5               6               7               8               9              10
               11              12              13              14              15              16              17              18              19              20
               21              22              23              24              25
 ................................................................................................................................................................
   1  1.925831320     1.926537836     1.926487848     1.926158160     1.925924021     1.925850122     1.925834575     1.925831872     1.925831426     1.925831349    
      1.925831329     1.925831320     1.925831302     1.925831279     1.925831258     1.925831244     1.925831237     1.925831234     1.925831234     1.925831237    
      1.925831246     1.925831259     1.925831275     1.925831297     1.925831314    
1
  CONCENTRATION IN LAYER   8 AT END OF TIME STEP   3 IN STRESS PERIOD    1
  ---------------------------------------------------------------------------

                1               2               3               4               5               6               7               8               9              10
               11              12              13              14              15              16              17              18              19              20
               21              22              23              24              25
 ................................................................................................................................................................
   1  1.925831320     1.926130443     1.926154228     1.926021954     1.925894929     1.925845808     1.925834018     1.925831798     1.925831415     1.925831347    
      1.925831329     1.925831321     1.925831304     1.925831283     1.925831263     1.925831251     1.925831244     1.925831241     1.925831241     1.925831244    
      1.925831251     1.925831263     1.925831278     1.925831298     1.925831314    
1
  CONCENTRATION IN LAYER   9 AT END OF TIME STEP   3 IN STRESS PERIOD    1
  ---------------------------------------------------------------------------

                1               2               3               4               5               6               7               8               9              10
               11              12              13              14              15              16              17              18              19              20
               21              22              23              24              25
 ................................................................................................................................................................
   1  1.925831320     1.925960809     1.925995894     1.925942861     1.925875318     1.925842714     1.925833613     1.925831741     1.925831404     1.925831346    
      1.925831331     1.925831323     1.925831307     1.925831288     1.925831271     1.925831261     1.925831255     1.925831252     1.925831251     1.925831253    
      1.925831260     1.925831270     1.925831283     1.925831300     1.925831314    
1
  CONCENTRATION IN LAYER  10 AT END OF TIME STEP   3 IN STRESS PERIOD    1
  ---------------------------------------------------------------------------

                1               2               3               4               5               6               7               8               9              10
               11              12              13              14              15              16              17              18              19              20
               21              22              23              24              25
 ................................................................................................................................................................
   1  1.925831320     1.925900237     1.925933105     1.925907693     1.925865609     1.925841106     1.925833398     1.925831708     1.925831399     1.925831346    
      1.925831333     1.925831325     1.925831312     1.925831296     1.925831282     1.925831274     1.925831268     1.925831265     1.925831264     1.925831265    
      1.925831270     1.925831278     1.925831288     1.925831302     1.925831314    

 CONCENTRATION WILL BE SAVED ON UNIT **** AT END OF TIME STEP    3, STRESS PERIOD    1



         TIME SUMMARY AT END OF TIME STEP    3 IN STRESS PERIOD    1
                    SECONDS     MINUTES      HOURS       DAYS        YEARS
                    -----------------------------------------------------------
   TIME STEP LENGTH 1.72800E+06  28800.      480.00      20.000     5.47570E-02
 STRESS PERIOD TIME 5.18400E+06  86400.      1440.0      60.000     0.16427    
         TOTAL TIME 5.18400E+06  86400.      1440.0      60.000     0.16427    


end timestep


start timestep kper="1" kstp="4" mode="normal"

1
  CONCENTRATION IN LAYER   1 AT END OF TIME STEP   4 IN STRESS PERIOD    1
  ---------------------------------------------------------------------------

                1               2               3               4               5               6               7               8               9              10
               11              12              13              14              15              16              17              18              19              20
               21              22              23              24              25
 ................................................................................................................................................................
   1  2.001110237     1.966545481     1.939617819     1.929287291     1.926548799     1.925962885     1.925853521     1.925834881     1.925831884     1.925831413    
      1.925831339     1.925831323     1.925831312     1.925831300     1.925831289     1.925831281     1.925831275     1.925831272     1.925831272     1.925831273    
      1.925831277     1.925831283     1.925831292     1.925831303     1.925831314    
1
  CONCENTRATION IN LAYER   2 AT END OF TIME STEP   4 IN STRESS PERIOD    1
  ---------------------------------------------------------------------------

                1               2               3               4               5               6               7               8               9              10
               11              12              13              14              15              16              17              18              19              20
               21              22              23              24              25
 ................................................................................................................................................................
   1  1.991906003     1.961113855     1.938093044     1.929022772     1.926511326     1.925957709     1.925852798     1.925834785     1.925831873     1.925831412    
      1.925831336     1.925831320     1.925831308     1.925831295     1.925831282     1.925831273     1.925831266     1.925831263     1.925831263     1.925831265    
      1.925831270     1.925831278     1.925831288     1.925831302     1.925831313    
1
  CONCENTRATION IN LAYER   3 AT END OF TIME STEP   4 IN STRESS PERIOD    1
  ---------------------------------------------------------------------------

                1               2               3               4               5               6               7               8               9              10
               11              12              13              14              15              16              17              18              19              20
               21              22              23              24              25
 ................................................................................................................................................................
   1  1.969705496     1.950638229     1.935477354     1.928575134     1.926444835     1.925948086     1.925851426     1.925834599     1.925831852     1.925831409    
      1.925831333     1.925831315     1.925831302     1.925831287     1.925831272     1.925831260     1.925831252     1.925831248     1.925831249     1.925831252    
      1.925831258     1.925831269     1.925831282     1.925831298     1.925831312    
1
  CONCENTRATION IN LAYER   4 AT END OF TIME STEP   4 IN STRESS PERIOD    1
  ---------------------------------------------------------------------------

                1               2               3               4               5               6               7               8               9              10
               11              12              13              14              15              16              17              18              19              20
               21              22              23              24              25
 ................................................................................................................................................................
   1  1.925831320     1.937664459     1.932565559     1.928056321     1.926360032     1.925935123     1.925849544     1.925834341     1.925831820     1.925831406    
      1.925831330     1.925831311     1.925831297     1.925831280     1.925831262     1.925831248     1.925831238     1.925831235     1.925831235     1.925831239    
      1.925831248     1.925831260     1.925831275     1.925831295     1.925831311    
1
  CONCENTRATION IN LAYER   5 AT END OF TIME STEP   4 IN STRESS PERIOD    1
  ---------------------------------------------------------------------------

                1               2               3               4               5               6               7               8               9              10
               11              12              13              14              15              16              17              18              19              20
               21              22              23              24              25
 ................................................................................................................................................................
   1  1.925831320     1.931383241     1.929913721     1.927475954     1.926262695     1.925920114     1.925847349     1.925834037     1.925831782     1.925831403    
      1.925831329     1.925831310     1.925831295     1.925831276     1.925831257     1.925831240     1.925831230     1.925831226     1.925831227     1.925831231    
      1.925831240     1.925831254     1.925831270     1.925831292     1.925831311    
1
  CONCENTRATION IN LAYER   6 AT END OF TIME STEP   4 IN STRESS PERIOD    1
  ---------------------------------------------------------------------------

                1               2               3               4               5               6               7               8               9              10
               11              12              13              14              15              16              17              18              19              20
               21              22              23              24              25
 ................................................................................................................................................................
   1  1.925831320     1.928395618     1.928105747     1.926946500     1.926162685     1.925904345     1.925845047     1.925833716     1.925831739     1.925831398    
      1.925831329     1.925831310     1.925831295     1.925831276     1.925831255     1.925831238     1.925831227     1.925831223     1.925831224     1.925831228    
      1.925831237     1.925831251     1.925831268     1.925831290     1.925831310    
1
  CONCENTRATION IN LAYER   7 AT END OF TIME STEP   4 IN STRESS PERIOD    1
  ---------------------------------------------------------------------------

                1               2               3               4               5               6               7               8               9              10
               11              12              13              14              15              16              17              18              19              20
               21              22              23              24              25
 ................................................................................................................................................................
   1  1.925831320     1.926995393     1.927036762     1.926535541     1.926071802     1.925889315     1.925842853     1.925833410     1.925831696     1.925831393    
      1.925831329     1.925831311     1.925831296     1.925831278     1.925831257     1.925831241     1.925831230     1.925831225     1.925831226     1.925831230    
      1.925831238     1.925831252     1.925831268     1.925831290     1.925831310    
1
  CONCENTRATION IN LAYER   8 AT END OF TIME STEP   4 IN STRESS PERIOD    1
  ---------------------------------------------------------------------------

                1               2               3               4               5               6               7               8               9              10
               11              12              13              14              15              16              17              18              19              20
               21              22              23              24              25
 ................................................................................................................................................................
   1  1.925831320     1.926350677     1.926463140     1.926253714     1.925999028     1.925876560     1.925840985     1.925833150     1.925831659     1.925831388    
      1.925831331     1.925831313     1.925831299     1.925831281     1.925831262     1.925831246     1.925831236     1.925831232     1.925831232     1.925831235    
      1.925831243     1.925831255     1.925831270     1.925831291     1.925831310    
1
  CONCENTRATION IN LAYER   9 AT END OF TIME STEP   4 IN STRESS PERIOD    1
  ---------------------------------------------------------------------------

                1               2               3               4               5               6               7               8               9              10
               11              12              13              14              15              16              17              18              19              20
               21              22              23              24              25
 ................................................................................................................................................................
   1  1.925831320     1.926069330     1.926174133     1.926088304     1.925949821     1.925867371     1.925839630     1.925832961     1.925831630     1.925831385    
      1.925831333     1.925831317     1.925831303     1.925831286     1.925831269     1.925831255     1.925831246     1.925831241     1.925831241     1.925831244    
      1.925831251     1.925831261     1.925831275     1.925831293     1.925831310    
1
  CONCENTRATION IN LAYER  10 AT END OF TIME STEP   4 IN STRESS PERIOD    1
  ---------------------------------------------------------------------------

                1               2               3               4               5               6               7               8               9              10
               11              12              13              14              15              16              17              18              19              20
               21              22              23              24              25
 ................................................................................................................................................................
   1  1.925831320     1.925965157     1.926054773     1.926013649     1.925925404     1.925862595     1.925838920     1.925832860     1.925831614     1.925831384    
      1.925831336     1.925831322     1.925831309     1.925831293     1.925831277     1.925831265     1.925831257     1.925831253     1.925831252     1.925831253    
      1.925831259     1.925831268     1.925831279     1.925831295     1.925831311    

 CONCENTRATION WILL BE SAVED ON UNIT **** AT END OF TIME STEP    4, STRESS PERIOD    1



         TIME SUMMARY AT END OF TIME STEP    4 IN STRESS PERIOD    1
                    SECONDS     MINUTES      HOURS       DAYS        YEARS
                    -----------------------------------------------------------
   TIME STEP LENGTH 1.72800E+06  28800.      480.00      20.000     5.47570E-02
 STRESS PERIOD TIME 6.91200E+06 1.15200E+05  1920.0      80.000     0.21903    
         TOTAL TIME 6.91200E+06 1.15200E+05  1920.0      80.000     0.21903    


end timestep


start timestep kper="1" kstp="5" mode="normal"

1
  CONCENTRATION IN LAYER   1 AT END OF TIME STEP   5 IN STRESS PERIOD    1
  ---------------------------------------------------------------------------

                1               2               3               4               5               6               7               8               9              10
               11              12              13              14              15              16              17              18              19              20
               21              22              23              24              25
 ................................................................................................................................................................
   1  2.006525776     1.973622656     1.944977376     1.931673393     1.927294821     1.926147959     1.925892758     1.925842357     1.925833217     1.925831649    
      1.925831376     1.925831327     1.925831311     1.925831298     1.925831285     1.925831275     1.925831268     1.925831263     1.925831262     1.925831264    
      1.925831268     1.925831275     1.925831285     1.925831297     1.925831310    
1
  CONCENTRATION IN LAYER   2 AT END OF TIME STEP   5 IN STRESS PERIOD    1
  ---------------------------------------------------------------------------

                1               2               3               4               5               6               7               8               9              10
               11              12              13              14              15              16              17              18              19              20
               21              22              23              24              25
 ................................................................................................................................................................
   1  1.996300350     1.967247195     1.942916422     1.931241675     1.927221053     1.926135965     1.925890837     1.925842062     1.925833175     1.925831642    
      1.925831373     1.925831323     1.925831307     1.925831293     1.925831279     1.925831268     1.925831259     1.925831255     1.925831255     1.925831257    
      1.925831261     1.925831270     1.925831281     1.925831295     1.925831310    
1
  CONCENTRATION IN LAYER   3 AT END OF TIME STEP   5 IN STRESS PERIOD    1
  ---------------------------------------------------------------------------

                1               2               3               4               5               6               7               8               9              10
               11              12              13              14              15              16              17              18              19              20
               21              22              23              24              25
 ................................................................................................................................................................
   1  1.972194715     1.955154901     1.939371471     1.930501572     1.927088712     1.926113547     1.925887189     1.925841498     1.925833092     1.925831628    
      1.925831368     1.925831318     1.925831300     1.925831285     1.925831269     1.925831256     1.925831247     1.925831242     1.925831242     1.925831245    
      1.925831251     1.925831262     1.925831275     1.925831292     1.925831309    
1
  CONCENTRATION IN LAYER   4 AT END OF TIME STEP   5 IN STRESS PERIOD    1
  ---------------------------------------------------------------------------

                1               2               3               4               5               6               7               8               9              10
               11              12              13              14              15              16              17              18              19              20
               21              22              23              24              25
 ................................................................................................................................................................
   1  1.925831320     1.940469686     1.935348370     1.929624797     1.926918077     1.926083173     1.925882174     1.925840719     1.925832978     1.925831611    
      1.925831363     1.925831314     1.925831295     1.925831278     1.925831261     1.925831245     1.925831235     1.925831230     1.925831230     1.925831234    
      1.925831241     1.925831254     1.925831269     1.925831289     1.925831308    
1
  CONCENTRATION IN LAYER   5 AT END OF TIME STEP   5 IN STRESS PERIOD    1
  ---------------------------------------------------------------------------

                1               2               3               4               5               6               7               8               9              10
               11              12              13              14              15              16              17              18              19              20
               21              22              23              24              25
 ................................................................................................................................................................
   1  1.925831320     1.933035435     1.931744405     1.928662456     1.926722396     1.926047784     1.925876290     1.925839805     1.925832843     1.925831591    
      1.925831360     1.925831311     1.925831292     1.925831274     1.925831255     1.925831238     1.925831227     1.925831221     1.925831222     1.925831226    
      1.925831234     1.925831247     1.925831264     1.925831286     1.925831306    
1
  CONCENTRATION IN LAYER   6 AT END OF TIME STEP   5 IN STRESS PERIOD    1
  ---------------------------------------------------------------------------

                1               2               3               4               5               6               7               8               9              10
               11              12              13              14              15              16              17              18              19              20
               21              22              23              24              25
 ................................................................................................................................................................
   1  1.925831320     1.929321003     1.929239918     1.927784748     1.926521292     1.926010438     1.925870088     1.925838846     1.925832701     1.925831570    
      1.925831358     1.925831311     1.925831292     1.925831274     1.925831254     1.925831236     1.925831224     1.925831218     1.925831219     1.925831223    
      1.925831231     1.925831245     1.925831261     1.925831284     1.925831306    
1
  CONCENTRATION IN LAYER   7 AT END OF TIME STEP   5 IN STRESS PERIOD    1
  ---------------------------------------------------------------------------

                1               2               3               4               5               6               7               8               9              10
               11              12              13              14              15              16              17              18              19              20
               21              22              23              24              25
 ................................................................................................................................................................
   1  1.925831320     1.927479487     1.927734526     1.927085532     1.926336679     1.925974712     1.925864160     1.925837936     1.925832566     1.925831551    
      1.925831356     1.925831312     1.925831293     1.925831275     1.925831255     1.925831238     1.925831226     1.925831220     1.925831220     1.925831224    
      1.925831232     1.925831245     1.925831261     1.925831284     1.925831305    
1
  CONCENTRATION IN LAYER   8 AT END OF TIME STEP   5 IN STRESS PERIOD    1
  ---------------------------------------------------------------------------

                1               2               3               4               5               6               7               8               9              10
               11              12              13              14              15              16              17              18              19              20
               21              22              23              24              25
 ................................................................................................................................................................
   1  1.925831320     1.926598894     1.926880338     1.926605384     1.926189102     1.925944324     1.925859090     1.925837166     1.925832450     1.925831534    
      1.925831356     1.925831315     1.925831297     1.925831279     1.925831260     1.925831243     1.925831231     1.925831225     1.925831226     1.925831229    
      1.925831236     1.925831248     1.925831264     1.925831285     1.925831306    
1
  CONCENTRATION IN LAYER   9 AT END OF TIME STEP   5 IN STRESS PERIOD    1
  ---------------------------------------------------------------------------

                1               2               3               4               5               6               7               8               9              10
               11              12              13              14              15              16              17              18              19              20
               21              22              23              24              25
 ................................................................................................................................................................
   1  1.925831320     1.926200539     1.926430265     1.926319342     1.926089264     1.925922417     1.925855401     1.925836609     1.925832367     1.925831522    
      1.925831356     1.925831318     1.925831301     1.925831284     1.925831266     1.925831250     1.925831239     1.925831234     1.925831233     1.925831236    
      1.925831242     1.925831253     1.925831267     1.925831286     1.925831306    
1
  CONCENTRATION IN LAYER  10 AT END OF TIME STEP   5 IN STRESS PERIOD    1
  ---------------------------------------------------------------------------

                1               2               3               4               5               6               7               8               9              10
               11              12              13              14              15              16              17              18              19              20
               21              22              23              24              25
 ................................................................................................................................................................
   1  1.925831320     1.926048819     1.926238665     1.926188380     1.926039620     1.925911022     1.925853468     1.925836317     1.925832323     1.925831517    
      1.925831359     1.925831323     1.925831306     1.925831290     1.925831273     1.925831259     1.925831249     1.925831243     1.925831242     1.925831244    
      1.925831249     1.925831258     1.925831271     1.925831288     1.925831306    

 CONCENTRATION WILL BE SAVED ON UNIT **** AT END OF TIME STEP    5, STRESS PERIOD    1



         TIME SUMMARY AT END OF TIME STEP    5 IN STRESS PERIOD    1
                    SECONDS     MINUTES      HOURS       DAYS        YEARS
                    -----------------------------------------------------------
   TIME STEP LENGTH 1.72800E+06  28800.      480.00      20.000     5.47570E-02
 STRESS PERIOD TIME 8.64000E+06 1.44000E+05  2400.0      100.00     0.27379    
         TOTAL TIME 8.64000E+06 1.44000E+05  2400.0      100.00     0.27379    


end timestep


start timestep kper="1" kstp="6" mode="normal"

1
  CONCENTRATION IN LAYER   1 AT END OF TIME STEP   6 IN STRESS PERIOD    1
  ---------------------------------------------------------------------------

                1               2               3               4               5               6               7               8               9              10
               11              12              13              14              15              16              17              18              19              20
               21              22              23              24              25
 ................................................................................................................................................................
   1  2.010168552     1.979081720     1.950114127     1.934557953     1.928413045     1.926482319     1.925975917     1.925860480     1.925836817     1.925832322    
      1.925831500     1.925831346     1.925831312     1.925831296     1.925831282     1.925831270     1.925831261     1.925831256     1.925831254     1.925831256    
      1.925831260     1.925831267     1.925831277     1.925831291     1.925831306    
1
  CONCENTRATION IN LAYER   2 AT END OF TIME STEP   6 IN STRESS PERIOD    1
  ---------------------------------------------------------------------------

                1               2               3               4               5               6               7               8               9              10
               11              12              13              14              15              16              17              18              19              20
               21              22              23              24              25
 ................................................................................................................................................................
   1  1.999251181     1.972014459     1.947567270     1.933932908     1.928286659     1.926458383     1.925971548     1.925859725     1.925836695     1.925832302    
      1.925831495     1.925831342     1.925831308     1.925831291     1.925831277     1.925831264     1.925831254     1.925831248     1.925831248     1.925831249    
      1.925831254     1.925831262     1.925831274     1.925831289     1.925831305    
1
  CONCENTRATION IN LAYER   3 AT END OF TIME STEP   6 IN STRESS PERIOD    1
  ---------------------------------------------------------------------------

                1               2               3               4               5               6               7               8               9              10
               11              12              13              14              15              16              17              18              19              20
               21              22              23              24              25
 ................................................................................................................................................................
   1  1.973865230     1.958747350     1.943172078     1.932850792     1.928058094     1.926413445     1.925963235     1.925858286     1.925836460     1.925832264    
      1.925831485     1.925831337     1.925831302     1.925831284     1.925831268     1.925831253     1.925831243     1.925831237     1.925831237     1.925831239    
      1.925831245     1.925831255     1.925831269     1.925831286     1.925831304    
1
  CONCENTRATION IN LAYER   4 AT END OF TIME STEP   6 IN STRESS PERIOD    1
  ---------------------------------------------------------------------------

                1               2               3               4               5               6               7               8               9              10
               11              12              13              14              15              16              17              18              19              20
               21              22              23              24              25
 ................................................................................................................................................................
   1  1.925831320     1.942829128     1.938113137     1.931549920     1.927761007     1.926352286     1.925951772     1.925856303     1.925836138     1.925832212    
      1.925831475     1.925831331     1.925831296     1.925831277     1.925831259     1.925831244     1.925831232     1.925831226     1.925831226     1.925831229    
      1.925831236     1.925831248     1.925831263     1.925831283     1.925831303    
1
  CONCENTRATION IN LAYER   5 AT END OF TIME STEP   6 IN STRESS PERIOD    1
  ---------------------------------------------------------------------------

                1               2               3               4               5               6               7               8               9              10
               11              12              13              14              15              16              17              18              19              20
               21              22              23              24              25
 ................................................................................................................................................................
   1  1.925831320     1.934499399     1.933627006     1.930137460     1.927419852     1.926280686     1.925938272     1.925853971     1.925835759     1.925832152    
      1.925831464     1.925831328     1.925831293     1.925831273     1.925831254     1.925831237     1.925831225     1.925831218     1.925831218     1.925831221    
      1.925831229     1.925831242     1.925831258     1.925831280     1.925831302    
1
  CONCENTRATION IN LAYER   6 AT END OF TIME STEP   6 IN STRESS PERIOD    1
  ---------------------------------------------------------------------------

                1               2               3               4               5               6               7               8               9              10
               11              12              13              14              15              16              17              18              19              20
               21              22              23              24              25
 ................................................................................................................................................................
   1  1.925831320     1.930162698     1.930493220     1.928835920     1.927067832     1.926204940     1.925924007     1.925851522     1.925835363     1.925832089    
      1.925831454     1.925831327     1.925831292     1.925831272     1.925831253     1.925831235     1.925831222     1.925831215     1.925831215     1.925831218    
      1.925831226     1.925831239     1.925831256     1.925831278     1.925831301    
1
  CONCENTRATION IN LAYER   7 AT END OF TIME STEP   6 IN STRESS PERIOD    1
  ---------------------------------------------------------------------------

                1               2               3               4               5               6               7               8               9              10
               11              12              13              14              15              16              17              18              19              20
               21              22              23              24              25
 ................................................................................................................................................................
   1  1.925831320     1.927942574     1.928542398     1.927796114     1.926745219     1.926132445     1.925910339     1.925849195     1.925834989     1.925832031    
      1.925831446     1.925831327     1.925831294     1.925831274     1.925831254     1.925831236     1.925831223     1.925831216     1.925831216     1.925831219    
      1.925831227     1.925831239     1.925831255     1.925831277     1.925831301    
1
  CONCENTRATION IN LAYER   8 AT END OF TIME STEP   6 IN STRESS PERIOD    1
  ---------------------------------------------------------------------------

                1               2               3               4               5               6               7               8               9              10
               11              12              13              14              15              16              17              18              19              20
               21              22              23              24              25
 ................................................................................................................................................................
   1  1.925831320     1.926850432     1.927387547     1.927076581     1.926488003     1.926070843     1.925898632     1.925847221     1.925834673     1.925831981    
      1.925831440     1.925831329     1.925831297     1.925831277     1.925831258     1.925831241     1.925831228     1.925831221     1.925831220     1.925831223    
      1.925831230     1.925831242     1.925831257     1.925831278     1.925831301    
1
  CONCENTRATION IN LAYER   9 AT END OF TIME STEP   6 IN STRESS PERIOD    1
  ---------------------------------------------------------------------------

                1               2               3               4               5               6               7               8               9              10
               11              12              13              14              15              16              17              18              19              20
               21              22              23              24              25
 ................................................................................................................................................................
   1  1.925831320     1.926342400     1.926758118     1.926641603     1.926313839     1.926026479     1.925890102     1.925845793     1.925834445     1.925831946    
      1.925831437     1.925831332     1.925831301     1.925831282     1.925831264     1.925831247     1.925831235     1.925831228     1.925831227     1.925831229    
[...]
      1.947644022     1.947321498     1.946848080     1.946175821     1.945059474    
1
  CONCENTRATION IN LAYER   9 AT END OF TIME STEP  99 IN STRESS PERIOD    1
  ---------------------------------------------------------------------------

                1               2               3               4               5               6               7               8               9              10
               11              12              13              14              15              16              17              18              19              20
               21              22              23              24              25
 ................................................................................................................................................................
   1  1.925831320     1.927324289     1.930755046     1.934871853     1.938518260     1.941335207     1.943383435     1.944833598     1.945849078     1.946557249    
      1.947050437     1.947393756     1.947632654     1.947798627     1.947913408     1.947990049     1.948017671     1.948006040     1.947954988     1.947840681    
      1.947637921     1.947317372     1.946845274     1.946173910     1.945058288    
1
  CONCENTRATION IN LAYER  10 AT END OF TIME STEP  99 IN STRESS PERIOD    1
  ---------------------------------------------------------------------------

                1               2               3               4               5               6               7               8               9              10
               11              12              13              14              15              16              17              18              19              20
               21              22              23              24              25
 ................................................................................................................................................................
   1  1.925831320     1.926953436     1.929872533     1.933813464     1.937589398     1.940624946     1.942870719     1.944472021     1.945596361     1.946381159    
      1.946927845     1.947308426     1.947573260     1.947757284     1.947884650     1.947970369     1.948004343     1.947995376     1.947947678     1.947835873    
      1.947634720     1.947315206     1.946843801     1.946172913     1.945057650    

 CONCENTRATION WILL BE SAVED ON UNIT **** AT END OF TIME STEP   99, STRESS PERIOD    1



         TIME SUMMARY AT END OF TIME STEP   99 IN STRESS PERIOD    1
                    SECONDS     MINUTES      HOURS       DAYS        YEARS
                    -----------------------------------------------------------
   TIME STEP LENGTH 1.72800E+06  28800.      480.00      20.000     5.47570E-02
 STRESS PERIOD TIME 1.71072E+08 2.85120E+06  47520.      1980.0      5.4209    
         TOTAL TIME 1.71072E+08 2.85120E+06  47520.      1980.0      5.4209    


end timestep


start timestep kper="1" kstp="100" mode="normal"


 SSM PACKAGE (SSM) FLOW RATES   PERIOD      1   STEP      100
 ------------------------------------------------------------------------------------------------
   NUMBER   CELLID                   BOUND Q        SSM CONC          RATE         PACKAGE NAME  
 ------------------------------------------------------------------------------------------------
     1      (4,1,1)               0.0000000       0.0000000       0.0000000            CHD       
     2      (5,1,1)               0.0000000       0.0000000       0.0000000            CHD       
     3      (6,1,1)               0.0000000       0.0000000       0.0000000            CHD       
     4      (7,1,1)               0.0000000       0.0000000       0.0000000            CHD       
     5      (8,1,1)               0.0000000       0.0000000       0.0000000            CHD       
     6      (9,1,1)               0.0000000       0.0000000       0.0000000            CHD       
     7      (10,1,1)              0.0000000       0.0000000       0.0000000            CHD       
     8      (1,1,25)             -2.08333338E-02  1.9453419      -4.05279563E-02       CHD       
     9      (2,1,25)             -2.08333338E-02  1.9453412      -4.05279432E-02       CHD       
     10     (3,1,25)             -2.08333338E-02  1.9453400      -4.05279186E-02       CHD       
     11     (4,1,25)             -2.08333338E-02  1.9453384      -4.05278847E-02       CHD       
     12     (5,1,25)             -2.08333338E-02  1.9453365      -4.05278449E-02       CHD       
     13     (6,1,25)             -2.08333338E-02  1.9453345      -4.05278030E-02       CHD       
     14     (7,1,25)             -2.08333338E-02  1.9453326      -4.05277632E-02       CHD       
     15     (8,1,25)             -2.08333338E-02  1.9453310      -4.05277293E-02       CHD       
     16     (9,1,25)             -2.08333338E-02  1.9453298      -4.05277045E-02       CHD       
     17     (10,1,25)            -2.08333338E-02  1.9453291      -4.05276912E-02       CHD       
     1      (1,1,1)               2.08333329E-02  2.0738495       4.32051963E-02     CHDTAIL     
     2      (2,1,1)               2.08333329E-02  2.0738495       4.32051963E-02     CHDTAIL     
     3      (3,1,1)               2.08333329E-02  2.0738495       4.32051963E-02     CHDTAIL     
 ------------------------------------------------------------------------------------------------




 CNC PACKAGE (CNC) FLOW RATES   PERIOD      1   STEP      100
 -----------------------------------------------
   NUMBER   CELLID                    RATE      
 -----------------------------------------------
     1      (4,1,1)               3.56818446E-02
     2      (5,1,1)               4.00517716E-02
     3      (6,1,1)               4.00831174E-02
     4      (7,1,1)               4.01000755E-02
     5      (8,1,1)               4.01091098E-02
     6      (9,1,1)               4.01137090E-02
     7      (10,1,1)              4.01156406E-02
 -----------------------------------------------



1
  CONCENTRATION IN LAYER   1 AT END OF TIME STEP 100 IN STRESS PERIOD    1
  ---------------------------------------------------------------------------

                1               2               3               4               5               6               7               8               9              10
               11              12              13              14              15              16              17              18              19              20
               21              22              23              24              25
 ................................................................................................................................................................
   1  2.018213842     1.994577445     1.975737726     1.965404932     1.959564246     1.955935399     1.953534660     1.951896943     1.950765153     1.949979139    
      1.949432347     1.949051773     1.948786806     1.948602109     1.948472266     1.948376657     1.948296761     1.948215326     1.948114399     1.947972653    
      1.947763661     1.947455834     1.947013414     1.946386993     1.945341860    
1
  CONCENTRATION IN LAYER   2 AT END OF TIME STEP 100 IN STRESS PERIOD    1
  ---------------------------------------------------------------------------

                1               2               3               4               5               6               7               8               9              10
               11              12              13              14              15              16              17              18              19              20
               21              22              23              24              25
 ................................................................................................................................................................
   1  2.005782210     1.985747650     1.971448777     1.963276352     1.958339142     1.955149771     1.953004609     1.951531968     1.950511946     1.949803033    
      1.949309779     1.948966453     1.948727413     1.948560766     1.948443519     1.948356648     1.948282721     1.948205429     1.948107464     1.947967858    
      1.947760389     1.947453620     1.947011921     1.946385976     1.945341233    
1
  CONCENTRATION IN LAYER   3 AT END OF TIME STEP 100 IN STRESS PERIOD    1
  ---------------------------------------------------------------------------

                1               2               3               4               5               6               7               8               9              10
               11              12              13              14              15              16              17              18              19              20
               21              22              23              24              25
 ................................................................................................................................................................
   1  1.977585923     1.969464783     1.963988096     1.959433077     1.956055532     1.953665321     1.951998569     1.950838190     1.950030385     1.949468064    
      1.949076638     1.948804163     1.948614441     1.948482126     1.948388845     1.948318606     1.948256008     1.948186590     1.948094265     1.947958738    
      1.947754170     1.947449412     1.947009077     1.946384045     1.945340048    
1
  CONCENTRATION IN LAYER   4 AT END OF TIME STEP 100 IN STRESS PERIOD    1
  ---------------------------------------------------------------------------

                1               2               3               4               5               6               7               8               9              10
               11              12              13              14              15              16              17              18              19              20
               21              22              23              24              25
 ................................................................................................................................................................
   1  1.925831320     1.950168631     1.955296670     1.954514283     1.953000769     1.951642528     1.950618664     1.949884246     1.949367711     1.949007022    
      1.948755740     1.948580788     1.948458948     1.948373888     1.948313606     1.948266296     1.948219220     1.948160617     1.948076074     1.947946188    
      1.947745621     1.947443629     1.947005168     1.946381389     1.945338421    
1
  CONCENTRATION IN LAYER   5 AT END OF TIME STEP 100 IN STRESS PERIOD    1
  ---------------------------------------------------------------------------

                1               2               3               4               5               6               7               8               9              10
               11              12              13              14              15              16              17              18              19              20
               21              22              23              24              25
 ................................................................................................................................................................
   1  1.925831320     1.939216280     1.947197763     1.949316646     1.949507906     1.949292289     1.949003737     1.948764183     1.948588882     1.948465043    
      1.948378493     1.948318189     1.948276154     1.948246646     1.948225176     1.948204939     1.948175923     1.948129994     1.948054639     1.947931434    
      1.947735589     1.947436845     1.947000578     1.946378268     1.945336511    
1
  CONCENTRATION IN LAYER   6 AT END OF TIME STEP 100 IN STRESS PERIOD    1
  ---------------------------------------------------------------------------

                1               2               3               4               5               6               7               8               9              10
               11              12              13              14              15              16              17              18              19              20
               21              22              23              24              25
 ................................................................................................................................................................
   1  1.925831320     1.933197881     1.940629239     1.944394470     1.946044433     1.946861855     1.947311741     1.947587633     1.947770177     1.947895183    
      1.947981821     1.948042071     1.948083952     1.948112856     1.948132241     1.948140815     1.948130228     1.948097591     1.948031994     1.947915918    
      1.947725064     1.947429730     1.946995760     1.946374989     1.945334502    
1
  CONCENTRATION IN LAYER   7 AT END OF TIME STEP 100 IN STRESS PERIOD    1
  ---------------------------------------------------------------------------

                1               2               3               4               5               6               7               8               9              10
               11              12              13              14              15              16              17              18              19              20
               21              22              23              24              25
 ................................................................................................................................................................
   1  1.925831320     1.929941925     1.935847596     1.940207854     1.942895331     1.944594639     1.945713302     1.946470603     1.946991791     1.947353218    
      1.947604551     1.947779462     1.947901156     1.947985616     1.948043738     1.948080725     1.948086688     1.948066249     1.948010244     1.947901146    
      1.947715083     1.947422983     1.946991186     1.946371874     1.945332591    
1
  CONCENTRATION IN LAYER   8 AT END OF TIME STEP 100 IN STRESS PERIOD    1
  ---------------------------------------------------------------------------

                1               2               3               4               5               6               7               8               9              10
               11              12              13              14              15              16              17              18              19              20
               21              22              23              24              25
 ................................................................................................................................................................
   1  1.925831320     1.928207340     1.932660128     1.937004440     1.940324454     1.942696926     1.944361366     1.945521940     1.946329865     1.946892197    
      1.947283616     1.947556068     1.947745658     1.947877379     1.947968430     1.948029168     1.948051165     1.948038854     1.947991408     1.947888547    
      1.947706619     1.947417263     1.946987302     1.946369227     1.945330962    
1
  CONCENTRATION IN LAYER   9 AT END OF TIME STEP 100 IN STRESS PERIOD    1
  ---------------------------------------------------------------------------

                1               2               3               4               5               6               7               8               9              10
               11              12              13              14              15              16              17              18              19              20
               21              22              23              24              25
 ................................................................................................................................................................
   1  1.925831320     1.927324289     1.930755046     1.934871853     1.938518260     1.941335207     1.943383435     1.944833598     1.945849078     1.946557249    
      1.947050436     1.947393760     1.947632682     1.947798740     1.947913711     1.947991584     1.948025876     1.948018744     1.947977543     1.947879363    
      1.947700484     1.947413118     1.946984486     1.946367309     1.945329772    
1
  CONCENTRATION IN LAYER  10 AT END OF TIME STEP 100 IN STRESS PERIOD    1
  ---------------------------------------------------------------------------

                1               2               3               4               5               6               7               8               9              10
               11              12              13              14              15              16              17              18              19              20
               21              22              23              24              25
 ................................................................................................................................................................
   1  1.925831320     1.926953436     1.929872533     1.933813464     1.937589398     1.940624946     1.942870719     1.944472021     1.945596361     1.946381158    
      1.946927845     1.947308429     1.947573288     1.947757398     1.947884943     1.947971799     1.948012705     1.948008123     1.947970211     1.947874521    
      1.947697264     1.947410944     1.946983008     1.946366307     1.945329133    

 CONCENTRATION WILL BE SAVED ON UNIT **** AT END OF TIME STEP  100, STRESS PERIOD    1


  MASS BUDGET FOR ENTIRE MODEL AT END OF TIME STEP  100, STRESS PERIOD   1
  ---------------------------------------------------------------------------------------------------

     CUMULATIVE MASS      M       RATES FOR THIS TIME STEP      M/T          PACKAGE NAME    
     ------------------                 ------------------------                     ----------------

           IN:                                      IN:
           ---                                      ---
     STORAGE-AQUEOUS =       1.8196E-04       STORAGE-AQUEOUS =       3.1638E-10     MST                              
                 CHD =           0.0000                   CHD =           0.0000     SSM_CHD                          
                 CHD =         259.2312                   CHD =           0.1296     SSM_CHDTAIL                      
                 CNC =         561.1641                   CNC =           0.2806     CNC                              

            TOTAL IN =         820.3955              TOTAL IN =           0.4102

          OUT:                                     OUT:
          ----                                     ----
     STORAGE-AQUEOUS =           7.6895       STORAGE-AQUEOUS =       5.9263E-04     MST                              
                 CHD =         804.2164                   CHD =           0.4053     SSM_CHD                          
                 CHD =           0.0000                   CHD =           0.0000     SSM_CHDTAIL                      
                 CNC =           8.4896                   CNC =       4.3129E-03     CNC                              

           TOTAL OUT =         820.3955             TOTAL OUT =           0.4102

            IN - OUT =      -3.7849E-06              IN - OUT =      -1.0597E-08

 PERCENT DISCREPANCY =          -0.00     PERCENT DISCREPANCY =          -0.00




         TIME SUMMARY AT END OF TIME STEP  100 IN STRESS PERIOD    1
                    SECONDS     MINUTES      HOURS       DAYS        YEARS
                    -----------------------------------------------------------
   TIME STEP LENGTH 1.72800E+06  28800.      480.00      20.000     5.47570E-02
 STRESS PERIOD TIME 1.72800E+08 2.88000E+06  48000.      2000.0      5.4757    
         TOTAL TIME 1.72800E+08 2.88000E+06  48000.      2000.0      5.4757    


end timestep

