   Input file: phinp.dat
  Output file: phout.dat
Database file: pht3d_datab.dat

------------------
Reading data base.
------------------

	SOLUTION_MASTER_SPECIES
	SOLUTION_SPECIES
	PHASES
	EXCHANGE_MASTER_SPECIES
	EXCHANGE_SPECIES
	SURFACE_MASTER_SPECIES
	SURFACE_SPECIES
	RATES
	END
------------------------------------
Reading input data for simulation 1.
------------------------------------

	SOLUTION 1 # [K,I,J] = 1,1,1
		units mol/kgw
		water 1.0
		temp 2.500000e+001
		pH 9.910000e+000  # comp 5
		pe 4.000000e+000  # comp 6
		C(4) 1.230000e-004  # comp 1
		Ca 1.230000e-004  # comp 2
		Cl 1.000000e-018  # comp 3
		Mg 1.000000e-018  # comp 4
	END
-------------------------------------------
Beginning of initial solution calculations.
-------------------------------------------

Initial solution 1.	

-----------------------------Solution composition------------------------------

	Elements           Molality       Moles

	C(4)             1.230e-004  1.230e-004
	Ca               1.230e-004  1.230e-004
	Cl               1.000e-018  1.000e-018
	Mg               1.000e-018  1.000e-018

----------------------------Description of solution----------------------------

                                       pH  =   9.910    
                                       pe  =   4.000    
                        Activity of water  =   1.000
                           Ionic strength  =  3.856e-004
                       Mass of water (kg)  =  1.000e+000
                 Total alkalinity (eq/kg)  =  2.459e-004
                       Total CO2 (mol/kg)  =  1.230e-004
                      Temperature (deg C)  =  25.000
                  Electrical balance (eq)  =  1.163e-007
 Percent error, 100*(Cat-|An|)/(Cat+|An|)  =   0.02
                               Iterations  =   3
                                  Total H  = 1.110126e+002
                                  Total O  = 5.550667e+001

----------------------------Distribution of species----------------------------

                                                   Log       Log         Log 
   Species                 Molality    Activity  Molality  Activity     Gamma

   OH-                   8.322e-005  8.137e-005    -4.080    -4.090    -0.010
   H+                    1.257e-010  1.230e-010    -9.901    -9.910    -0.009
   H2O                   5.551e+001  1.000e+000     1.744    -0.000     0.000
C(4)            1.230e-004
   HCO3-                 8.333e-005  8.149e-005    -4.079    -4.089    -0.010
   CO3-2                 3.396e-005  3.107e-005    -4.469    -4.508    -0.039
   CaCO3                 5.577e-006  5.578e-006    -5.254    -5.254     0.000
   CaHCO3+               1.139e-007  1.114e-007    -6.943    -6.953    -0.010
   CO2                   2.254e-008  2.254e-008    -7.647    -7.647     0.000
   MgCO3                 2.569e-020  2.570e-020   -19.590   -19.590     0.000
   MgHCO3+               8.453e-022  8.266e-022   -21.073   -21.083    -0.010
Ca              1.230e-004
   Ca+2                  1.172e-004  1.072e-004    -3.931    -3.970    -0.039
   CaCO3                 5.577e-006  5.578e-006    -5.254    -5.254     0.000
   CaOH+                 1.478e-007  1.446e-007    -6.830    -6.840    -0.010
   CaHCO3+               1.139e-007  1.114e-007    -6.943    -6.953    -0.010
Cl              1.000e-018
   Cl-                   1.000e-018  9.777e-019   -18.000   -18.010    -0.010
H(0)            2.143e-031
   H2                    1.071e-031  1.072e-031   -30.970   -30.970     0.000
Mg              1.000e-018
   Mg+2                  9.473e-019  8.668e-019   -18.024   -18.062    -0.039
   MgOH+                 2.615e-020  2.558e-020   -19.582   -19.592    -0.010
   MgCO3                 2.569e-020  2.570e-020   -19.590   -19.590     0.000
   MgHCO3+               8.453e-022  8.266e-022   -21.073   -21.083    -0.010
O(0)            7.261e-031
   O2                    3.630e-031  3.631e-031   -30.440   -30.440     0.000

------------------------------Saturation indices-------------------------------

	Phase               SI log IAP  log KT

	Aragonite        -0.14   -8.48   -8.34  CaCO3
	Artinite        -30.41  -20.81    9.60  MgCO3:Mg(OH)2:3H2O
	Brucite         -15.08    1.76   16.84  Mg(OH)2
	Calcite           0.00   -8.48   -8.48  CaCO3
	CO2(g)           -6.18   -7.65   -1.47  CO2
	Dolomite        -13.96  -31.05  -17.09  CaMg(CO3)2
	Dolomite(d)     -14.51  -31.05  -16.54  CaMg(CO3)2
	H2(g)           -27.82  -30.97   -3.15  H2
	Huntite         -46.22  -76.19  -29.97  CaMg3(CO3)4
	Hydromagnesite  -79.76  -88.52   -8.76  Mg5(CO3)4(OH)2:4H2O
	Magnesite       -14.54  -22.57   -8.03  MgCO3
	Nesquehonite    -16.95  -22.57   -5.62  MgCO3:3H2O
	O2(g)           -27.55  -30.44   -2.89  O2
	Portlandite      -6.95   15.85   22.80  Ca(OH)2

------------------
End of simulation.
------------------

------------------------------------
Reading input data for simulation 2.
------------------------------------

	EQUILIBRIUM_PHASES 1
		Calcite 0.000000e+000 1.220625e-004 # comp 7
		Dolomite 0.000000e+000 0.000000e+000 # comp 8
	END
------------------
End of simulation.
------------------

------------------------------------
Reading input data for simulation 3.
------------------------------------

	COPY solution 1 2-50
	COPY equilibrium_phases 1 2-50
	END
------------------
End of simulation.
------------------

------------------------------------
Reading input data for simulation 4.
------------------------------------

	PRINT
		reset false
-------------------------------------------
Beginning of initial solution calculations.
-------------------------------------------

Initial solution 0.	WELL in layer 1, row 1, column 1

-----------------------------Solution composition------------------------------

	Elements           Molality       Moles

	C(4)             1.000e-018  1.000e-018
	Ca               1.000e-018  1.000e-018
	Cl               2.000e-003  2.000e-003
	Mg               1.000e-003  1.000e-003

----------------------------Description of solution----------------------------

                                       pH  =   7.000    
                                       pe  =   4.000    
                        Activity of water  =   1.000
                           Ionic strength  =  3.000e-003
                       Mass of water (kg)  =  1.000e+000
                 Total alkalinity (eq/kg)  =  3.113e-008
                       Total CO2 (mol/kg)  =  1.000e-018
                      Temperature (deg C)  =  25.000
                  Electrical balance (eq)  = -3.114e-008
 Percent error, 100*(Cat-|An|)/(Cat+|An|)  =  -0.00
                               Iterations  =   4
                                  Total H  = 1.110124e+002
                                  Total O  = 5.550622e+001

----------------------------Distribution of species----------------------------

                                                   Log       Log         Log 
   Species                 Molality    Activity  Molality  Activity     Gamma

   OH-                   1.063e-007  1.001e-007    -6.973    -7.000    -0.026
   H+                    1.057e-007  1.000e-007    -6.976    -7.000    -0.024
   H2O-0.01              9.120e-010  9.120e-010    -9.040    -9.040    -0.000
   H2O                   5.551e+001  9.999e-001     1.744    -0.000     0.000
C(4)            1.000e-018
   HCO3-                 8.183e-019  7.717e-019   -18.087   -18.113    -0.025
   CO2                   1.734e-019  1.735e-019   -18.761   -18.761     0.000
   MgHCO3+               7.599e-021  7.157e-021   -20.119   -20.145    -0.026
   CO3-2                 4.574e-022  3.619e-022   -21.340   -21.441    -0.102
   MgCO3                 2.735e-022  2.737e-022   -21.563   -21.563     0.000
   CaHCO3+               8.249e-036  7.785e-036   -35.084   -35.109    -0.025
   CaCO3                 4.792e-037  4.795e-037   -36.319   -36.319     0.000
Ca              1.000e-018
   Ca+2                  1.000e-018  7.909e-019   -18.000   -18.102    -0.102
   CaOH+                 1.391e-024  1.312e-024   -23.857   -23.882    -0.025
   CaHCO3+               8.249e-036  7.785e-036   -35.084   -35.109    -0.025
   CaCO3                 4.792e-037  4.795e-037   -36.319   -36.319     0.000
Cl              2.000e-003
   Cl-                   2.000e-003  1.883e-003    -2.699    -2.725    -0.026
H(0)            1.415e-025
   H2                    7.075e-026  7.079e-026   -25.150   -25.150     0.000
Mg              1.000e-003
   Mg+2                  1.000e-003  7.926e-004    -3.000    -3.101    -0.101
   MgOH+                 3.048e-008  2.878e-008    -7.516    -7.541    -0.025
   MgHCO3+               7.599e-021  7.157e-021   -20.119   -20.145    -0.026
   MgCO3                 2.735e-022  2.737e-022   -21.563   -21.563     0.000
O(0)            0.000e+000
   O2                    0.000e+000  0.000e+000   -42.080   -42.080     0.000

------------------------------Saturation indices-------------------------------

	Phase               SI log IAP  log KT

	Aragonite       -31.21  -39.54   -8.34  CaCO3
	Artinite        -23.24  -13.64    9.60  MgCO3:Mg(OH)2:3H2O
	Brucite          -5.94   10.90   16.84  Mg(OH)2
	Calcite         -31.06  -39.54   -8.48  CaCO3
	CO2(g)          -17.29  -18.76   -1.47  CO2
	Dolomite        -47.00  -64.09  -17.09  CaMg(CO3)2
	Dolomite(d)     -47.55  -64.09  -16.54  CaMg(CO3)2
	H2(g)           -22.00  -25.15   -3.15  H2
	Huntite         -83.20 -113.17  -29.97  CaMg3(CO3)4
	Hydromagnesite  -78.51  -87.27   -8.76  Mg5(CO3)4(OH)2:4H2O
	Magnesite       -16.51  -24.54   -8.03  MgCO3
	Nesquehonite    -18.92  -24.54   -5.62  MgCO3:3H2O
	O2(g)           -39.19  -42.08   -2.89  O2
	Portlandite     -26.90   -4.10   22.80  Ca(OH)2

-------------------------------------------
Beginning of initial solution calculations.
-------------------------------------------

Initial solution 0.	WELL in layer 1, row 1, column 1

-----------------------------Solution composition------------------------------

	Elements           Molality       Moles

	C(4)             1.000e-018  1.000e-018
	Ca               1.000e-018  1.000e-018
	Cl               2.000e-003  2.000e-003
	Mg               1.000e-003  1.000e-003

----------------------------Description of solution----------------------------

                                       pH  =   7.000    
                                       pe  =   4.000    
                        Activity of water  =   1.000
                           Ionic strength  =  3.000e-003
                       Mass of water (kg)  =  1.000e+000
                 Total alkalinity (eq/kg)  =  3.113e-008
                       Total CO2 (mol/kg)  =  1.000e-018
                      Temperature (deg C)  =  25.000
                  Electrical balance (eq)  = -3.114e-008
 Percent error, 100*(Cat-|An|)/(Cat+|An|)  =  -0.00
                               Iterations  =   4
                                  Total H  = 1.110124e+002
                                  Total O  = 5.550622e+001

----------------------------Distribution of species----------------------------

                                                   Log       Log         Log 
   Species                 Molality    Activity  Molality  Activity     Gamma

   OH-                   1.063e-007  1.001e-007    -6.973    -7.000    -0.026
   H+                    1.057e-007  1.000e-007    -6.976    -7.000    -0.024
   H2O-0.01              9.120e-010  9.120e-010    -9.040    -9.040    -0.000
   H2O                   5.551e+001  9.999e-001     1.744    -0.000     0.000
C(4)            1.000e-018
   HCO3-                 8.183e-019  7.717e-019   -18.087   -18.113    -0.025
   CO2                   1.734e-019  1.735e-019   -18.761   -18.761     0.000
   MgHCO3+               7.599e-021  7.157e-021   -20.119   -20.145    -0.026
   CO3-2                 4.574e-022  3.619e-022   -21.340   -21.441    -0.102
   MgCO3                 2.735e-022  2.737e-022   -21.563   -21.563     0.000
   CaHCO3+               8.249e-036  7.785e-036   -35.084   -35.109    -0.025
   CaCO3                 4.792e-037  4.795e-037   -36.319   -36.319     0.000
Ca              1.000e-018
   Ca+2                  1.000e-018  7.909e-019   -18.000   -18.102    -0.102
   CaOH+                 1.391e-024  1.312e-024   -23.857   -23.882    -0.025
   CaHCO3+               8.249e-036  7.785e-036   -35.084   -35.109    -0.025
   CaCO3                 4.792e-037  4.795e-037   -36.319   -36.319     0.000
Cl              2.000e-003
   Cl-                   2.000e-003  1.883e-003    -2.699    -2.725    -0.026
H(0)            1.415e-025
   H2                    7.075e-026  7.079e-026   -25.150   -25.150     0.000
Mg              1.000e-003
   Mg+2                  1.000e-003  7.926e-004    -3.000    -3.101    -0.101
   MgOH+                 3.048e-008  2.878e-008    -7.516    -7.541    -0.025
   MgHCO3+               7.599e-021  7.157e-021   -20.119   -20.145    -0.026
   MgCO3                 2.735e-022  2.737e-022   -21.563   -21.563     0.000
O(0)            0.000e+000
   O2                    0.000e+000  0.000e+000   -42.080   -42.080     0.000

------------------------------Saturation indices-------------------------------

	Phase               SI log IAP  log KT

	Aragonite       -31.21  -39.54   -8.34  CaCO3
	Artinite        -23.24  -13.64    9.60  MgCO3:Mg(OH)2:3H2O
	Brucite          -5.94   10.90   16.84  Mg(OH)2
	Calcite         -31.06  -39.54   -8.48  CaCO3
	CO2(g)          -17.29  -18.76   -1.47  CO2
	Dolomite        -47.00  -64.09  -17.09  CaMg(CO3)2
	Dolomite(d)     -47.55  -64.09  -16.54  CaMg(CO3)2
	H2(g)           -22.00  -25.15   -3.15  H2
	Huntite         -83.20 -113.17  -29.97  CaMg3(CO3)4
	Hydromagnesite  -78.51  -87.27   -8.76  Mg5(CO3)4(OH)2:4H2O
	Magnesite       -16.51  -24.54   -8.03  MgCO3
	Nesquehonite    -18.92  -24.54   -5.62  MgCO3:3H2O
	O2(g)           -39.19  -42.08   -2.89  O2
	Portlandite     -26.90   -4.10   22.80  Ca(OH)2

-------------------------------------------
Beginning of initial solution calculations.
-------------------------------------------

Initial solution 0.	WELL in layer 1, row 1, column 1

-----------------------------Solution composition------------------------------

	Elements           Molality       Moles

	C(4)             1.000e-018  1.000e-018
	Ca               1.000e-018  1.000e-018
	Cl               2.000e-003  2.000e-003
	Mg               1.000e-003  1.000e-003

----------------------------Description of solution----------------------------

                                       pH  =   7.000    
                                       pe  =   4.000    
                        Activity of water  =   1.000
                           Ionic strength  =  3.000e-003
                       Mass of water (kg)  =  1.000e+000
                 Total alkalinity (eq/kg)  =  3.113e-008
                       Total CO2 (mol/kg)  =  1.000e-018
                      Temperature (deg C)  =  25.000
                  Electrical balance (eq)  = -3.114e-008
 Percent error, 100*(Cat-|An|)/(Cat+|An|)  =  -0.00
                               Iterations  =   4
                                  Total H  = 1.110124e+002
                                  Total O  = 5.550622e+001

----------------------------Distribution of species----------------------------

                                                   Log       Log         Log 
   Species                 Molality    Activity  Molality  Activity     Gamma

   OH-                   1.063e-007  1.001e-007    -6.973    -7.000    -0.026
   H+                    1.057e-007  1.000e-007    -6.976    -7.000    -0.024
   H2O-0.01              9.120e-010  9.120e-010    -9.040    -9.040    -0.000
   H2O                   5.551e+001  9.999e-001     1.744    -0.000     0.000
C(4)            1.000e-018
   HCO3-                 8.183e-019  7.717e-019   -18.087   -18.113    -0.025
   CO2                   1.734e-019  1.735e-019   -18.761   -18.761     0.000
   MgHCO3+               7.599e-021  7.157e-021   -20.119   -20.145    -0.026
   CO3-2                 4.574e-022  3.619e-022   -21.340   -21.441    -0.102
   MgCO3                 2.735e-022  2.737e-022   -21.563   -21.563     0.000
   CaHCO3+               8.249e-036  7.785e-036   -35.084   -35.109    -0.025
   CaCO3                 4.792e-037  4.795e-037   -36.319   -36.319     0.000
Ca              1.000e-018
   Ca+2                  1.000e-018  7.909e-019   -18.000   -18.102    -0.102
   CaOH+                 1.391e-024  1.312e-024   -23.857   -23.882    -0.025
   CaHCO3+               8.249e-036  7.785e-036   -35.084   -35.109    -0.025
   CaCO3                 4.792e-037  4.795e-037   -36.319   -36.319     0.000
Cl              2.000e-003
   Cl-                   2.000e-003  1.883e-003    -2.699    -2.725    -0.026
H(0)            1.415e-025
   H2                    7.075e-026  7.079e-026   -25.150   -25.150     0.000
Mg              1.000e-003
   Mg+2                  1.000e-003  7.926e-004    -3.000    -3.101    -0.101
   MgOH+                 3.048e-008  2.878e-008    -7.516    -7.541    -0.025
   MgHCO3+               7.599e-021  7.157e-021   -20.119   -20.145    -0.026
   MgCO3                 2.735e-022  2.737e-022   -21.563   -21.563     0.000
O(0)            0.000e+000
   O2                    0.000e+000  0.000e+000   -42.080   -42.080     0.000

------------------------------Saturation indices-------------------------------

	Phase               SI log IAP  log KT

	Aragonite       -31.21  -39.54   -8.34  CaCO3
	Artinite        -23.24  -13.64    9.60  MgCO3:Mg(OH)2:3H2O
	Brucite          -5.94   10.90   16.84  Mg(OH)2
	Calcite         -31.06  -39.54   -8.48  CaCO3
	CO2(g)          -17.29  -18.76   -1.47  CO2
	Dolomite        -47.00  -64.09  -17.09  CaMg(CO3)2
	Dolomite(d)     -47.55  -64.09  -16.54  CaMg(CO3)2
	H2(g)           -22.00  -25.15   -3.15  H2
	Huntite         -83.20 -113.17  -29.97  CaMg3(CO3)4
	Hydromagnesite  -78.51  -87.27   -8.76  Mg5(CO3)4(OH)2:4H2O
	Magnesite       -16.51  -24.54   -8.03  MgCO3
	Nesquehonite    -18.92  -24.54   -5.62  MgCO3:3H2O
	O2(g)           -39.19  -42.08   -2.89  O2
	Portlandite     -26.90   -4.10   22.80  Ca(OH)2

-------------------------------------------
Beginning of initial solution calculations.
-------------------------------------------

Initial solution 0.	WELL in layer 1, row 1, column 1

-----------------------------Solution composition------------------------------

	Elements           Molality       Moles

	C(4)             1.000e-018  1.000e-018
	Ca               1.000e-018  1.000e-018
	Cl               2.000e-003  2.000e-003
	Mg               1.000e-003  1.000e-003

----------------------------Description of solution----------------------------

                                       pH  =   7.000    
                                       pe  =   4.000    
                        Activity of water  =   1.000
                           Ionic strength  =  3.000e-003
                       Mass of water (kg)  =  1.000e+000
                 Total alkalinity (eq/kg)  =  3.113e-008
                       Total CO2 (mol/kg)  =  1.000e-018
                      Temperature (deg C)  =  25.000
                  Electrical balance (eq)  = -3.114e-008
 Percent error, 100*(Cat-|An|)/(Cat+|An|)  =  -0.00
                               Iterations  =   4
                                  Total H  = 1.110124e+002
                                  Total O  = 5.550622e+001

----------------------------Distribution of species----------------------------

                                                   Log       Log         Log 
   Species                 Molality    Activity  Molality  Activity     Gamma

   OH-                   1.063e-007  1.001e-007    -6.973    -7.000    -0.026
   H+                    1.057e-007  1.000e-007    -6.976    -7.000    -0.024
   H2O-0.01              9.120e-010  9.120e-010    -9.040    -9.040    -0.000
   H2O                   5.551e+001  9.999e-001     1.744    -0.000     0.000
C(4)            1.000e-018
   HCO3-                 8.183e-019  7.717e-019   -18.087   -18.113    -0.025
   CO2                   1.734e-019  1.735e-019   -18.761   -18.761     0.000
   MgHCO3+               7.599e-021  7.157e-021   -20.119   -20.145    -0.026
   CO3-2                 4.574e-022  3.619e-022   -21.340   -21.441    -0.102
   MgCO3                 2.735e-022  2.737e-022   -21.563   -21.563     0.000
   CaHCO3+               8.249e-036  7.785e-036   -35.084   -35.109    -0.025
   CaCO3                 4.792e-037  4.795e-037   -36.319   -36.319     0.000
Ca              1.000e-018
   Ca+2                  1.000e-018  7.909e-019   -18.000   -18.102    -0.102
   CaOH+                 1.391e-024  1.312e-024   -23.857   -23.882    -0.025
   CaHCO3+               8.249e-036  7.785e-036   -35.084   -35.109    -0.025
   CaCO3                 4.792e-037  4.795e-037   -36.319   -36.319     0.000
Cl              2.000e-003
   Cl-                   2.000e-003  1.883e-003    -2.699    -2.725    -0.026
H(0)            1.415e-025
   H2                    7.075e-026  7.079e-026   -25.150   -25.150     0.000
Mg              1.000e-003
   Mg+2                  1.000e-003  7.926e-004    -3.000    -3.101    -0.101
   MgOH+                 3.048e-008  2.878e-008    -7.516    -7.541    -0.025
   MgHCO3+               7.599e-021  7.157e-021   -20.119   -20.145    -0.026
   MgCO3                 2.735e-022  2.737e-022   -21.563   -21.563     0.000
O(0)            0.000e+000
   O2                    0.000e+000  0.000e+000   -42.080   -42.080     0.000

------------------------------Saturation indices-------------------------------

	Phase               SI log IAP  log KT

	Aragonite       -31.21  -39.54   -8.34  CaCO3
	Artinite        -23.24  -13.64    9.60  MgCO3:Mg(OH)2:3H2O
	Brucite          -5.94   10.90   16.84  Mg(OH)2
	Calcite         -31.06  -39.54   -8.48  CaCO3
	CO2(g)          -17.29  -18.76   -1.47  CO2
	Dolomite        -47.00  -64.09  -17.09  CaMg(CO3)2
	Dolomite(d)     -47.55  -64.09  -16.54  CaMg(CO3)2
	H2(g)           -22.00  -25.15   -3.15  H2
	Huntite         -83.20 -113.17  -29.97  CaMg3(CO3)4
	Hydromagnesite  -78.51  -87.27   -8.76  Mg5(CO3)4(OH)2:4H2O
	Magnesite       -16.51  -24.54   -8.03  MgCO3
	Nesquehonite    -18.92  -24.54   -5.62  MgCO3:3H2O
	O2(g)           -39.19  -42.08   -2.89  O2
	Portlandite     -26.90   -4.10   22.80  Ca(OH)2

-------------------------------------------
Beginning of initial solution calculations.
-------------------------------------------

Initial solution 0.	WELL in layer 1, row 1, column 1

-----------------------------Solution composition------------------------------

	Elements           Molality       Moles

	C(4)             1.000e-018  1.000e-018
	Ca               1.000e-018  1.000e-018
	Cl               2.000e-003  2.000e-003
	Mg               1.000e-003  1.000e-003

----------------------------Description of solution----------------------------

                                       pH  =   7.000    
                                       pe  =   4.000    
                        Activity of water  =   1.000
                           Ionic strength  =  3.000e-003
                       Mass of water (kg)  =  1.000e+000
                 Total alkalinity (eq/kg)  =  3.113e-008
                       Total CO2 (mol/kg)  =  1.000e-018
                      Temperature (deg C)  =  25.000
                  Electrical balance (eq)  = -3.114e-008
 Percent error, 100*(Cat-|An|)/(Cat+|An|)  =  -0.00
                               Iterations  =   4
                                  Total H  = 1.110124e+002
                                  Total O  = 5.550622e+001

----------------------------Distribution of species----------------------------

                                                   Log       Log         Log 
   Species                 Molality    Activity  Molality  Activity     Gamma

   OH-                   1.063e-007  1.001e-007    -6.973    -7.000    -0.026
   H+                    1.057e-007  1.000e-007    -6.976    -7.000    -0.024
   H2O-0.01              9.120e-010  9.120e-010    -9.040    -9.040    -0.000
   H2O                   5.551e+001  9.999e-001     1.744    -0.000     0.000
C(4)            1.000e-018
   HCO3-                 8.183e-019  7.717e-019   -18.087   -18.113    -0.025
   CO2                   1.734e-019  1.735e-019   -18.761   -18.761     0.000
   MgHCO3+               7.599e-021  7.157e-021   -20.119   -20.145    -0.026
   CO3-2                 4.574e-022  3.619e-022   -21.340   -21.441    -0.102
   MgCO3                 2.735e-022  2.737e-022   -21.563   -21.563     0.000
   CaHCO3+               8.249e-036  7.785e-036   -35.084   -35.109    -0.025
   CaCO3                 4.792e-037  4.795e-037   -36.319   -36.319     0.000
Ca              1.000e-018
   Ca+2                  1.000e-018  7.909e-019   -18.000   -18.102    -0.102
   CaOH+                 1.391e-024  1.312e-024   -23.857   -23.882    -0.025
   CaHCO3+               8.249e-036  7.785e-036   -35.084   -35.109    -0.025
   CaCO3                 4.792e-037  4.795e-037   -36.319   -36.319     0.000
Cl              2.000e-003
   Cl-                   2.000e-003  1.883e-003    -2.699    -2.725    -0.026
H(0)            1.415e-025
   H2                    7.075e-026  7.079e-026   -25.150   -25.150     0.000
Mg              1.000e-003
   Mg+2                  1.000e-003  7.926e-004    -3.000    -3.101    -0.101
   MgOH+                 3.048e-008  2.878e-008    -7.516    -7.541    -0.025
   MgHCO3+               7.599e-021  7.157e-021   -20.119   -20.145    -0.026
   MgCO3                 2.735e-022  2.737e-022   -21.563   -21.563     0.000
O(0)            0.000e+000
   O2                    0.000e+000  0.000e+000   -42.080   -42.080     0.000

------------------------------Saturation indices-------------------------------

	Phase               SI log IAP  log KT

	Aragonite       -31.21  -39.54   -8.34  CaCO3
	Artinite        -23.24  -13.64    9.60  MgCO3:Mg(OH)2:3H2O
	Brucite          -5.94   10.90   16.84  Mg(OH)2
	Calcite         -31.06  -39.54   -8.48  CaCO3
	CO2(g)          -17.29  -18.76   -1.47  CO2
	Dolomite        -47.00  -64.09  -17.09  CaMg(CO3)2
	Dolomite(d)     -47.55  -64.09  -16.54  CaMg(CO3)2
	H2(g)           -22.00  -25.15   -3.15  H2
	Huntite         -83.20 -113.17  -29.97  CaMg3(CO3)4
	Hydromagnesite  -78.51  -87.27   -8.76  Mg5(CO3)4(OH)2:4H2O
	Magnesite       -16.51  -24.54   -8.03  MgCO3
	Nesquehonite    -18.92  -24.54   -5.62  MgCO3:3H2O
	O2(g)           -39.19  -42.08   -2.89  O2
	Portlandite     -26.90   -4.10   22.80  Ca(OH)2

-------------------------------------------
Beginning of initial solution calculations.
-------------------------------------------

Initial solution 0.	WELL in layer 1, row 1, column 1

-----------------------------Solution composition------------------------------

	Elements           Molality       Moles

	C(4)             1.000e-018  1.000e-018
	Ca               1.000e-018  1.000e-018
	Cl               2.000e-003  2.000e-003
	Mg               1.000e-003  1.000e-003

----------------------------Description of solution----------------------------

                                       pH  =   7.000    
                                       pe  =   4.000    
                        Activity of water  =   1.000
                           Ionic strength  =  3.000e-003
                       Mass of water (kg)  =  1.000e+000
                 Total alkalinity (eq/kg)  =  3.113e-008
                       Total CO2 (mol/kg)  =  1.000e-018
                      Temperature (deg C)  =  25.000
                  Electrical balance (eq)  = -3.114e-008
 Percent error, 100*(Cat-|An|)/(Cat+|An|)  =  -0.00
                               Iterations  =   4
                                  Total H  = 1.110124e+002
                                  Total O  = 5.550622e+001

----------------------------Distribution of species----------------------------

                                                   Log       Log         Log 
   Species                 Molality    Activity  Molality  Activity     Gamma

   OH-                   1.063e-007  1.001e-007    -6.973    -7.000    -0.026
   H+                    1.057e-007  1.000e-007    -6.976    -7.000    -0.024
   H2O-0.01              9.120e-010  9.120e-010    -9.040    -9.040    -0.000
   H2O                   5.551e+001  9.999e-001     1.744    -0.000     0.000
C(4)            1.000e-018
   HCO3-                 8.183e-019  7.717e-019   -18.087   -18.113    -0.025
   CO2                   1.734e-019  1.735e-019   -18.761   -18.761     0.000
   MgHCO3+               7.599e-021  7.157e-021   -20.119   -20.145    -0.026
   CO3-2                 4.574e-022  3.619e-022   -21.340   -21.441    -0.102
   MgCO3                 2.735e-022  2.737e-022   -21.563   -21.563     0.000
   CaHCO3+               8.249e-036  7.785e-036   -35.084   -35.109    -0.025
   CaCO3                 4.792e-037  4.795e-037   -36.319   -36.319     0.000
Ca              1.000e-018
   Ca+2                  1.000e-018  7.909e-019   -18.000   -18.102    -0.102
   CaOH+                 1.391e-024  1.312e-024   -23.857   -23.882    -0.025
   CaHCO3+               8.249e-036  7.785e-036   -35.084   -35.109    -0.025
   CaCO3                 4.792e-037  4.795e-037   -36.319   -36.319     0.000
Cl              2.000e-003
   Cl-                   2.000e-003  1.883e-003    -2.699    -2.725    -0.026
H(0)            1.415e-025
   H2                    7.075e-026  7.079e-026   -25.150   -25.150     0.000
Mg              1.000e-003
   Mg+2                  1.000e-003  7.926e-004    -3.000    -3.101    -0.101
   MgOH+                 3.048e-008  2.878e-008    -7.516    -7.541    -0.025
   MgHCO3+               7.599e-021  7.157e-021   -20.119   -20.145    -0.026
   MgCO3                 2.735e-022  2.737e-022   -21.563   -21.563     0.000
O(0)            0.000e+000
   O2                    0.000e+000  0.000e+000   -42.080   -42.080     0.000

------------------------------Saturation indices-------------------------------

	Phase               SI log IAP  log KT

	Aragonite       -31.21  -39.54   -8.34  CaCO3
	Artinite        -23.24  -13.64    9.60  MgCO3:Mg(OH)2:3H2O
	Brucite          -5.94   10.90   16.84  Mg(OH)2
	Calcite         -31.06  -39.54   -8.48  CaCO3
	CO2(g)          -17.29  -18.76   -1.47  CO2
	Dolomite        -47.00  -64.09  -17.09  CaMg(CO3)2
	Dolomite(d)     -47.55  -64.09  -16.54  CaMg(CO3)2
	H2(g)           -22.00  -25.15   -3.15  H2
	Huntite         -83.20 -113.17  -29.97  CaMg3(CO3)4
	Hydromagnesite  -78.51  -87.27   -8.76  Mg5(CO3)4(OH)2:4H2O
	Magnesite       -16.51  -24.54   -8.03  MgCO3
	Nesquehonite    -18.92  -24.54   -5.62  MgCO3:3H2O
	O2(g)           -39.19  -42.08   -2.89  O2
	Portlandite     -26.90   -4.10   22.80  Ca(OH)2

-------------------------------------------
Beginning of initial solution calculations.
-------------------------------------------

Initial solution 0.	WELL in layer 1, row 1, column 1

-----------------------------Solution composition------------------------------

	Elements           Molality       Moles

	C(4)             1.000e-018  1.000e-018
	Ca               1.000e-018  1.000e-018
	Cl               2.000e-003  2.000e-003
	Mg               1.000e-003  1.000e-003

----------------------------Description of solution----------------------------

                                       pH  =   7.000    
                                       pe  =   4.000    
                        Activity of water  =   1.000
                           Ionic strength  =  3.000e-003
                       Mass of water (kg)  =  1.000e+000
                 Total alkalinity (eq/kg)  =  3.113e-008
                       Total CO2 (mol/kg)  =  1.000e-018
                      Temperature (deg C)  =  25.000
                  Electrical balance (eq)  = -3.114e-008
 Percent error, 100*(Cat-|An|)/(Cat+|An|)  =  -0.00
                               Iterations  =   4
                                  Total H  = 1.110124e+002
                                  Total O  = 5.550622e+001

----------------------------Distribution of species----------------------------

                                                   Log       Log         Log 
   Species                 Molality    Activity  Molality  Activity     Gamma

   OH-                   1.063e-007  1.001e-007    -6.973    -7.000    -0.026
   H+                    1.057e-007  1.000e-007    -6.976    -7.000    -0.024
   H2O-0.01              9.120e-010  9.120e-010    -9.040    -9.040    -0.000
   H2O                   5.551e+001  9.999e-001     1.744    -0.000     0.000
C(4)            1.000e-018
   HCO3-                 8.183e-019  7.717e-019   -18.087   -18.113    -0.025
   CO2                   1.734e-019  1.735e-019   -18.761   -18.761     0.000
   MgHCO3+               7.599e-021  7.157e-021   -20.119   -20.145    -0.026
   CO3-2                 4.574e-022  3.619e-022   -21.340   -21.441    -0.102
   MgCO3                 2.735e-022  2.737e-022   -21.563   -21.563     0.000
   CaHCO3+               8.249e-036  7.785e-036   -35.084   -35.109    -0.025
   CaCO3                 4.792e-037  4.795e-037   -36.319   -36.319     0.000
Ca              1.000e-018
   Ca+2                  1.000e-018  7.909e-019   -18.000   -18.102    -0.102
   CaOH+                 1.391e-024  1.312e-024   -23.857   -23.882    -0.025
   CaHCO3+               8.249e-036  7.785e-036   -35.084   -35.109    -0.025
   CaCO3                 4.792e-037  4.795e-037   -36.319   -36.319     0.000
Cl              2.000e-003
   Cl-                   2.000e-003  1.883e-003    -2.699    -2.725    -0.026
H(0)            1.415e-025
   H2                    7.075e-026  7.079e-026   -25.150   -25.150     0.000
Mg              1.000e-003
   Mg+2                  1.000e-003  7.926e-004    -3.000    -3.101    -0.101
   MgOH+                 3.048e-008  2.878e-008    -7.516    -7.541    -0.025
   MgHCO3+               7.599e-021  7.157e-021   -20.119   -20.145    -0.026
   MgCO3                 2.735e-022  2.737e-022   -21.563   -21.563     0.000
O(0)            0.000e+000
   O2                    0.000e+000  0.000e+000   -42.080   -42.080     0.000

------------------------------Saturation indices-------------------------------

	Phase               SI log IAP  log KT

	Aragonite       -31.21  -39.54   -8.34  CaCO3
	Artinite        -23.24  -13.64    9.60  MgCO3:Mg(OH)2:3H2O
	Brucite          -5.94   10.90   16.84  Mg(OH)2
	Calcite         -31.06  -39.54   -8.48  CaCO3
	CO2(g)          -17.29  -18.76   -1.47  CO2
	Dolomite        -47.00  -64.09  -17.09  CaMg(CO3)2
	Dolomite(d)     -47.55  -64.09  -16.54  CaMg(CO3)2
	H2(g)           -22.00  -25.15   -3.15  H2
	Huntite         -83.20 -113.17  -29.97  CaMg3(CO3)4
	Hydromagnesite  -78.51  -87.27   -8.76  Mg5(CO3)4(OH)2:4H2O
	Magnesite       -16.51  -24.54   -8.03  MgCO3
	Nesquehonite    -18.92  -24.54   -5.62  MgCO3:3H2O
	O2(g)           -39.19  -42.08   -2.89  O2
	Portlandite     -26.90   -4.10   22.80  Ca(OH)2

-------------------------------------------
Beginning of initial solution calculations.
-------------------------------------------

Initial solution 0.	WELL in layer 1, row 1, column 1

-----------------------------Solution composition------------------------------

	Elements           Molality       Moles

	C(4)             1.000e-018  1.000e-018
	Ca               1.000e-018  1.000e-018
	Cl               2.000e-003  2.000e-003
	Mg               1.000e-003  1.000e-003

----------------------------Description of solution----------------------------

                                       pH  =   7.000    
                                       pe  =   4.000    
                        Activity of water  =   1.000
                           Ionic strength  =  3.000e-003
                       Mass of water (kg)  =  1.000e+000
                 Total alkalinity (eq/kg)  =  3.113e-008
                       Total CO2 (mol/kg)  =  1.000e-018
                      Temperature (deg C)  =  25.000
                  Electrical balance (eq)  = -3.114e-008
 Percent error, 100*(Cat-|An|)/(Cat+|An|)  =  -0.00
                               Iterations  =   4
                                  Total H  = 1.110124e+002
                                  Total O  = 5.550622e+001

----------------------------Distribution of species----------------------------

                                                   Log       Log         Log 
   Species                 Molality    Activity  Molality  Activity     Gamma

   OH-                   1.063e-007  1.001e-007    -6.973    -7.000    -0.026
   H+                    1.057e-007  1.000e-007    -6.976    -7.000    -0.024
   H2O-0.01              9.120e-010  9.120e-010    -9.040    -9.040    -0.000
   H2O                   5.551e+001  9.999e-001     1.744    -0.000     0.000
C(4)            1.000e-018
   HCO3-                 8.183e-019  7.717e-019   -18.087   -18.113    -0.025
   CO2                   1.734e-019  1.735e-019   -18.761   -18.761     0.000
   MgHCO3+               7.599e-021  7.157e-021   -20.119   -20.145    -0.026
   CO3-2                 4.574e-022  3.619e-022   -21.340   -21.441    -0.102
   MgCO3                 2.735e-022  2.737e-022   -21.563   -21.563     0.000
   CaHCO3+               8.249e-036  7.785e-036   -35.084   -35.109    -0.025
   CaCO3                 4.792e-037  4.795e-037   -36.319   -36.319     0.000
Ca              1.000e-018
   Ca+2                  1.000e-018  7.909e-019   -18.000   -18.102    -0.102
   CaOH+                 1.391e-024  1.312e-024   -23.857   -23.882    -0.025
   CaHCO3+               8.249e-036  7.785e-036   -35.084   -35.109    -0.025
   CaCO3                 4.792e-037  4.795e-037   -36.319   -36.319     0.000
Cl              2.000e-003
   Cl-                   2.000e-003  1.883e-003    -2.699    -2.725    -0.026
H(0)            1.415e-025
   H2                    7.075e-026  7.079e-026   -25.150   -25.150     0.000
Mg              1.000e-003
   Mg+2                  1.000e-003  7.926e-004    -3.000    -3.101    -0.101
   MgOH+                 3.048e-008  2.878e-008    -7.516    -7.541    -0.025
   MgHCO3+               7.599e-021  7.157e-021   -20.119   -20.145    -0.026
   MgCO3                 2.735e-022  2.737e-022   -21.563   -21.563     0.000
O(0)            0.000e+000
   O2                    0.000e+000  0.000e+000   -42.080   -42.080     0.000

------------------------------Saturation indices-------------------------------

	Phase               SI log IAP  log KT

	Aragonite       -31.21  -39.54   -8.34  CaCO3
	Artinite        -23.24  -13.64    9.60  MgCO3:Mg(OH)2:3H2O
	Brucite          -5.94   10.90   16.84  Mg(OH)2
	Calcite         -31.06  -39.54   -8.48  CaCO3
	CO2(g)          -17.29  -18.76   -1.47  CO2
	Dolomite        -47.00  -64.09  -17.09  CaMg(CO3)2
	Dolomite(d)     -47.55  -64.09  -16.54  CaMg(CO3)2
	H2(g)           -22.00  -25.15   -3.15  H2
	Huntite         -83.20 -113.17  -29.97  CaMg3(CO3)4
	Hydromagnesite  -78.51  -87.27   -8.76  Mg5(CO3)4(OH)2:4H2O
	Magnesite       -16.51  -24.54   -8.03  MgCO3
	Nesquehonite    -18.92  -24.54   -5.62  MgCO3:3H2O
	O2(g)           -39.19  -42.08   -2.89  O2
	Portlandite     -26.90   -4.10   22.80  Ca(OH)2

-------------------------------------------
Beginning of initial solution calculations.
-------------------------------------------

Initial solution 0.	WELL in layer 1, row 1, column 1

-----------------------------Solution composition------------------------------

	Elements           Molality       Moles

	C(4)             1.000e-018  1.000e-018
	Ca               1.000e-018  1.000e-018
	Cl               2.000e-003  2.000e-003
	Mg               1.000e-003  1.000e-003

----------------------------Description of solution----------------------------

                                       pH  =   7.000    
                                       pe  =   4.000    
                        Activity of water  =   1.000
                           Ionic strength  =  3.000e-003
                       Mass of water (kg)  =  1.000e+000
                 Total alkalinity (eq/kg)  =  3.113e-008
                       Total CO2 (mol/kg)  =  1.000e-018
                      Temperature (deg C)  =  25.000
                  Electrical balance (eq)  = -3.114e-008
 Percent error, 100*(Cat-|An|)/(Cat+|An|)  =  -0.00
                               Iterations  =   4
                                  Total H  = 1.110124e+002
                                  Total O  = 5.550622e+001

----------------------------Distribution of species----------------------------

                                                   Log       Log         Log 
   Species                 Molality    Activity  Molality  Activity     Gamma

   OH-                   1.063e-007  1.001e-007    -6.973    -7.000    -0.026
   H+                    1.057e-007  1.000e-007    -6.976    -7.000    -0.024
   H2O-0.01              9.120e-010  9.120e-010    -9.040    -9.040    -0.000
   H2O                   5.551e+001  9.999e-001     1.744    -0.000     0.000
C(4)            1.000e-018
   HCO3-                 8.183e-019  7.717e-019   -18.087   -18.113    -0.025
   CO2                   1.734e-019  1.735e-019   -18.761   -18.761     0.000
   MgHCO3+               7.599e-021  7.157e-021   -20.119   -20.145    -0.026
   CO3-2                 4.574e-022  3.619e-022   -21.340   -21.441    -0.102
   MgCO3                 2.735e-022  2.737e-022   -21.563   -21.563     0.000
   CaHCO3+               8.249e-036  7.785e-036   -35.084   -35.109    -0.025
   CaCO3                 4.792e-037  4.795e-037   -36.319   -36.319     0.000
Ca              1.000e-018
   Ca+2                  1.000e-018  7.909e-019   -18.000   -18.102    -0.102
   CaOH+                 1.391e-024  1.312e-024   -23.857   -23.882    -0.025
   CaHCO3+               8.249e-036  7.785e-036   -35.084   -35.109    -0.025
   CaCO3                 4.792e-037  4.795e-037   -36.319   -36.319     0.000
Cl              2.000e-003
   Cl-                   2.000e-003  1.883e-003    -2.699    -2.725    -0.026
H(0)            1.415e-025
   H2                    7.075e-026  7.079e-026   -25.150   -25.150     0.000
Mg              1.000e-003
   Mg+2                  1.000e-003  7.926e-004    -3.000    -3.101    -0.101
   MgOH+                 3.048e-008  2.878e-008    -7.516    -7.541    -0.025
   MgHCO3+               7.599e-021  7.157e-021   -20.119   -20.145    -0.026
   MgCO3                 2.735e-022  2.737e-022   -21.563   -21.563     0.000
O(0)            0.000e+000
   O2                    0.000e+000  0.000e+000   -42.080   -42.080     0.000

------------------------------Saturation indices-------------------------------

	Phase               SI log IAP  log KT

	Aragonite       -31.21  -39.54   -8.34  CaCO3
	Artinite        -23.24  -13.64    9.60  MgCO3:Mg(OH)2:3H2O
	Brucite          -5.94   10.90   16.84  Mg(OH)2
	Calcite         -31.06  -39.54   -8.48  CaCO3
	CO2(g)          -17.29  -18.76   -1.47  CO2
	Dolomite        -47.00  -64.09  -17.09  CaMg(CO3)2
	Dolomite(d)     -47.55  -64.09  -16.54  CaMg(CO3)2
	H2(g)           -22.00  -25.15   -3.15  H2
	Huntite         -83.20 -113.17  -29.97  CaMg3(CO3)4
	Hydromagnesite  -78.51  -87.27   -8.76  Mg5(CO3)4(OH)2:4H2O
	Magnesite       -16.51  -24.54   -8.03  MgCO3
	Nesquehonite    -18.92  -24.54   -5.62  MgCO3:3H2O
	O2(g)           -39.19  -42.08   -2.89  O2
	Portlandite     -26.90   -4.10   22.80  Ca(OH)2

-------------------------------------------
Beginning of initial solution calculations.
-------------------------------------------

Initial solution 0.	WELL in layer 1, row 1, column 1

-----------------------------Solution composition------------------------------

	Elements           Molality       Moles

	C(4)             1.000e-018  1.000e-018
	Ca               1.000e-018  1.000e-018
	Cl               2.000e-003  2.000e-003
	Mg               1.000e-003  1.000e-003

----------------------------Description of solution----------------------------

                                       pH  =   7.000    
                                       pe  =   4.000    
                        Activity of water  =   1.000
                           Ionic strength  =  3.000e-003
                       Mass of water (kg)  =  1.000e+000
                 Total alkalinity (eq/kg)  =  3.113e-008
                       Total CO2 (mol/kg)  =  1.000e-018
                      Temperature (deg C)  =  25.000
                  Electrical balance (eq)  = -3.114e-008
 Percent error, 100*(Cat-|An|)/(Cat+|An|)  =  -0.00
                               Iterations  =   4
                                  Total H  = 1.110124e+002
                                  Total O  = 5.550622e+001

----------------------------Distribution of species----------------------------

                                                   Log       Log         Log 
   Species                 Molality    Activity  Molality  Activity     Gamma

   OH-                   1.063e-007  1.001e-007    -6.973    -7.000    -0.026
   H+                    1.057e-007  1.000e-007    -6.976    -7.000    -0.024
   H2O-0.01              9.120e-010  9.120e-010    -9.040    -9.040    -0.000
   H2O                   5.551e+001  9.999e-001     1.744    -0.000     0.000
C(4)            1.000e-018
   HCO3-                 8.183e-019  7.717e-019   -18.087   -18.113    -0.025
   CO2                   1.734e-019  1.735e-019   -18.761   -18.761     0.000
   MgHCO3+               7.599e-021  7.157e-021   -20.119   -20.145    -0.026
   CO3-2                 4.574e-022  3.619e-022   -21.340   -21.441    -0.102
   MgCO3                 2.735e-022  2.737e-022   -21.563   -21.563     0.000
   CaHCO3+               8.249e-036  7.785e-036   -35.084   -35.109    -0.025
   CaCO3                 4.792e-037  4.795e-037   -36.319   -36.319     0.000
Ca              1.000e-018
   Ca+2                  1.000e-018  7.909e-019   -18.000   -18.102    -0.102
   CaOH+                 1.391e-024  1.312e-024   -23.857   -23.882    -0.025
   CaHCO3+               8.249e-036  7.785e-036   -35.084   -35.109    -0.025
   CaCO3                 4.792e-037  4.795e-037   -36.319   -36.319     0.000
Cl              2.000e-003
   Cl-                   2.000e-003  1.883e-003    -2.699    -2.725    -0.026
H(0)            1.415e-025
   H2                    7.075e-026  7.079e-026   -25.150   -25.150     0.000
Mg              1.000e-003
   Mg+2                  1.000e-003  7.926e-004    -3.000    -3.101    -0.101
   MgOH+                 3.048e-008  2.878e-008    -7.516    -7.541    -0.025
   MgHCO3+               7.599e-021  7.157e-021   -20.119   -20.145    -0.026
   MgCO3                 2.735e-022  2.737e-022   -21.563   -21.563     0.000
O(0)            0.000e+000
   O2                    0.000e+000  0.000e+000   -42.080   -42.080     0.000

------------------------------Saturation indices-------------------------------

	Phase               SI log IAP  log KT

	Aragonite       -31.21  -39.54   -8.34  CaCO3
	Artinite        -23.24  -13.64    9.60  MgCO3:Mg(OH)2:3H2O
	Brucite          -5.94   10.90   16.84  Mg(OH)2
	Calcite         -31.06  -39.54   -8.48  CaCO3
	CO2(g)          -17.29  -18.76   -1.47  CO2
	Dolomite        -47.00  -64.09  -17.09  CaMg(CO3)2
	Dolomite(d)     -47.55  -64.09  -16.54  CaMg(CO3)2
	H2(g)           -22.00  -25.15   -3.15  H2
	Huntite         -83.20 -113.17  -29.97  CaMg3(CO3)4
	Hydromagnesite  -78.51  -87.27   -8.76  Mg5(CO3)4(OH)2:4H2O
	Magnesite       -16.51  -24.54   -8.03  MgCO3
	Nesquehonite    -18.92  -24.54   -5.62  MgCO3:3H2O
	O2(g)           -39.19  -42.08   -2.89  O2
	Portlandite     -26.90   -4.10   22.80  Ca(OH)2

-------------------------------------------
Beginning of initial solution calculations.
-------------------------------------------

Initial solution 0.	WELL in layer 1, row 1, column 1

-----------------------------Solution composition------------------------------

	Elements           Molality       Moles

	C(4)             1.000e-018  1.000e-018
	Ca               1.000e-018  1.000e-018
	Cl               2.000e-003  2.000e-003
	Mg               1.000e-003  1.000e-003

----------------------------Description of solution----------------------------

                                       pH  =   7.000    
                                       pe  =   4.000    
                        Activity of water  =   1.000
                           Ionic strength  =  3.000e-003
                       Mass of water (kg)  =  1.000e+000
                 Total alkalinity (eq/kg)  =  3.113e-008
                       Total CO2 (mol/kg)  =  1.000e-018
                      Temperature (deg C)  =  25.000
                  Electrical balance (eq)  = -3.114e-008
 Percent error, 100*(Cat-|An|)/(Cat+|An|)  =  -0.00
                               Iterations  =   4
                                  Total H  = 1.110124e+002
                                  Total O  = 5.550622e+001

----------------------------Distribution of species----------------------------

                                                   Log       Log         Log 
   Species                 Molality    Activity  Molality  Activity     Gamma

   OH-                   1.063e-007  1.001e-007    -6.973    -7.000    -0.026
   H+                    1.057e-007  1.000e-007    -6.976    -7.000    -0.024
   H2O-0.01              9.120e-010  9.120e-010    -9.040    -9.040    -0.000
   H2O                   5.551e+001  9.999e-001     1.744    -0.000     0.000
C(4)            1.000e-018
   HCO3-                 8.183e-019  7.717e-019   -18.087   -18.113    -0.025
   CO2                   1.734e-019  1.735e-019   -18.761   -18.761     0.000
   MgHCO3+               7.599e-021  7.157e-021   -20.119   -20.145    -0.026
   CO3-2                 4.574e-022  3.619e-022   -21.340   -21.441    -0.102
   MgCO3                 2.735e-022  2.737e-022   -21.563   -21.563     0.000
   CaHCO3+               8.249e-036  7.785e-036   -35.084   -35.109    -0.025
   CaCO3                 4.792e-037  4.795e-037   -36.319   -36.319     0.000
Ca              1.000e-018
   Ca+2                  1.000e-018  7.909e-019   -18.000   -18.102    -0.102
   CaOH+                 1.391e-024  1.312e-024   -23.857   -23.882    -0.025
   CaHCO3+               8.249e-036  7.785e-036   -35.084   -35.109    -0.025
   CaCO3                 4.792e-037  4.795e-037   -36.319   -36.319     0.000
Cl              2.000e-003
   Cl-                   2.000e-003  1.883e-003    -2.699    -2.725    -0.026
H(0)            1.415e-025
   H2                    7.075e-026  7.079e-026   -25.150   -25.150     0.000
Mg              1.000e-003
   Mg+2                  1.000e-003  7.926e-004    -3.000    -3.101    -0.101
   MgOH+                 3.048e-008  2.878e-008    -7.516    -7.541    -0.025
   MgHCO3+               7.599e-021  7.157e-021   -20.119   -20.145    -0.026
   MgCO3                 2.735e-022  2.737e-022   -21.563   -21.563     0.000
O(0)            0.000e+000
   O2                    0.000e+000  0.000e+000   -42.080   -42.080     0.000

------------------------------Saturation indices-------------------------------

	Phase               SI log IAP  log KT

	Aragonite       -31.21  -39.54   -8.34  CaCO3
	Artinite        -23.24  -13.64    9.60  MgCO3:Mg(OH)2:3H2O
	Brucite          -5.94   10.90   16.84  Mg(OH)2
	Calcite         -31.06  -39.54   -8.48  CaCO3
	CO2(g)          -17.29  -18.76   -1.47  CO2
	Dolomite        -47.00  -64.09  -17.09  CaMg(CO3)2
	Dolomite(d)     -47.55  -64.09  -16.54  CaMg(CO3)2
	H2(g)           -22.00  -25.15   -3.15  H2
	Huntite         -83.20 -113.17  -29.97  CaMg3(CO3)4
	Hydromagnesite  -78.51  -87.27   -8.76  Mg5(CO3)4(OH)2:4H2O
	Magnesite       -16.51  -24.54   -8.03  MgCO3
	Nesquehonite    -18.92  -24.54   -5.62  MgCO3:3H2O
	O2(g)           -39.19  -42.08   -2.89  O2
	Portlandite     -26.90   -4.10   22.80  Ca(OH)2

-------------------------------------------
Beginning of initial solution calculations.
-------------------------------------------

Initial solution 0.	WELL in layer 1, row 1, column 1

-----------------------------Solution composition------------------------------

	Elements           Molality       Moles

	C(4)             1.000e-018  1.000e-018
	Ca               1.000e-018  1.000e-018
	Cl               2.000e-003  2.000e-003
	Mg               1.000e-003  1.000e-003

----------------------------Description of solution----------------------------

                                       pH  =   7.000    
                                       pe  =   4.000    
                        Activity of water  =   1.000
                           Ionic strength  =  3.000e-003
                       Mass of water (kg)  =  1.000e+000
                 Total alkalinity (eq/kg)  =  3.113e-008
                       Total CO2 (mol/kg)  =  1.000e-018
                      Temperature (deg C)  =  25.000
                  Electrical balance (eq)  = -3.114e-008
 Percent error, 100*(Cat-|An|)/(Cat+|An|)  =  -0.00
                               Iterations  =   4
                                  Total H  = 1.110124e+002
                                  Total O  = 5.550622e+001

----------------------------Distribution of species----------------------------

                                                   Log       Log         Log 
   Species                 Molality    Activity  Molality  Activity     Gamma

   OH-                   1.063e-007  1.001e-007    -6.973    -7.000    -0.026
   H+                    1.057e-007  1.000e-007    -6.976    -7.000    -0.024
   H2O-0.01              9.120e-010  9.120e-010    -9.040    -9.040    -0.000
   H2O                   5.551e+001  9.999e-001     1.744    -0.000     0.000
C(4)            1.000e-018
   HCO3-                 8.183e-019  7.717e-019   -18.087   -18.113    -0.025
   CO2                   1.734e-019  1.735e-019   -18.761   -18.761     0.000
   MgHCO3+               7.599e-021  7.157e-021   -20.119   -20.145    -0.026
   CO3-2                 4.574e-022  3.619e-022   -21.340   -21.441    -0.102
   MgCO3                 2.735e-022  2.737e-022   -21.563   -21.563     0.000
   CaHCO3+               8.249e-036  7.785e-036   -35.084   -35.109    -0.025
   CaCO3                 4.792e-037  4.795e-037   -36.319   -36.319     0.000
Ca              1.000e-018
   Ca+2                  1.000e-018  7.909e-019   -18.000   -18.102    -0.102
   CaOH+                 1.391e-024  1.312e-024   -23.857   -23.882    -0.025
   CaHCO3+               8.249e-036  7.785e-036   -35.084   -35.109    -0.025
   CaCO3                 4.792e-037  4.795e-037   -36.319   -36.319     0.000
Cl              2.000e-003
   Cl-                   2.000e-003  1.883e-003    -2.699    -2.725    -0.026
H(0)            1.415e-025
   H2                    7.075e-026  7.079e-026   -25.150   -25.150     0.000
Mg              1.000e-003
   Mg+2                  1.000e-003  7.926e-004    -3.000    -3.101    -0.101
   MgOH+                 3.048e-008  2.878e-008    -7.516    -7.541    -0.025
   MgHCO3+               7.599e-021  7.157e-021   -20.119   -20.145    -0.026
   MgCO3                 2.735e-022  2.737e-022   -21.563   -21.563     0.000
O(0)            0.000e+000
   O2                    0.000e+000  0.000e+000   -42.080   -42.080     0.000

------------------------------Saturation indices-------------------------------

	Phase               SI log IAP  log KT

	Aragonite       -31.21  -39.54   -8.34  CaCO3
	Artinite        -23.24  -13.64    9.60  MgCO3:Mg(OH)2:3H2O
	Brucite          -5.94   10.90   16.84  Mg(OH)2
	Calcite         -31.06  -39.54   -8.48  CaCO3
	CO2(g)          -17.29  -18.76   -1.47  CO2
	Dolomite        -47.00  -64.09  -17.09  CaMg(CO3)2
	Dolomite(d)     -47.55  -64.09  -16.54  CaMg(CO3)2
	H2(g)           -22.00  -25.15   -3.15  H2
	Huntite         -83.20 -113.17  -29.97  CaMg3(CO3)4
	Hydromagnesite  -78.51  -87.27   -8.76  Mg5(CO3)4(OH)2:4H2O
	Magnesite       -16.51  -24.54   -8.03  MgCO3
	Nesquehonite    -18.92  -24.54   -5.62  MgCO3:3H2O
	O2(g)           -39.19  -42.08   -2.89  O2
	Portlandite     -26.90   -4.10   22.80  Ca(OH)2

-------------------------------------------
Beginning of initial solution calculations.
-------------------------------------------

Initial solution 0.	WELL in layer 1, row 1, column 1

-----------------------------Solution composition------------------------------

	Elements           Molality       Moles

	C(4)             1.000e-018  1.000e-018
	Ca               1.000e-018  1.000e-018
	Cl               2.000e-003  2.000e-003
	Mg               1.000e-003  1.000e-003

----------------------------Description of solution----------------------------

                                       pH  =   7.000    
                                       pe  =   4.000    
                        Activity of water  =   1.000
                           Ionic strength  =  3.000e-003
                       Mass of water (kg)  =  1.000e+000
                 Total alkalinity (eq/kg)  =  3.113e-008
                       Total CO2 (mol/kg)  =  1.000e-018
                      Temperature (deg C)  =  25.000
                  Electrical balance (eq)  = -3.114e-008
 Percent error, 100*(Cat-|An|)/(Cat+|An|)  =  -0.00
                               Iterations  =   4
                                  Total H  = 1.110124e+002
                                  Total O  = 5.550622e+001

----------------------------Distribution of species----------------------------

                                                   Log       Log         Log 
   Species                 Molality    Activity  Molality  Activity     Gamma

   OH-                   1.063e-007  1.001e-007    -6.973    -7.000    -0.026
   H+                    1.057e-007  1.000e-007    -6.976    -7.000    -0.024
   H2O-0.01              9.120e-010  9.120e-010    -9.040    -9.040    -0.000
   H2O                   5.551e+001  9.999e-001     1.744    -0.000     0.000
C(4)            1.000e-018
   HCO3-                 8.183e-019  7.717e-019   -18.087   -18.113    -0.025
   CO2                   1.734e-019  1.735e-019   -18.761   -18.761     0.000
   MgHCO3+               7.599e-021  7.157e-021   -20.119   -20.145    -0.026
   CO3-2                 4.574e-022  3.619e-022   -21.340   -21.441    -0.102
   MgCO3                 2.735e-022  2.737e-022   -21.563   -21.563     0.000
   CaHCO3+               8.249e-036  7.785e-036   -35.084   -35.109    -0.025
   CaCO3                 4.792e-037  4.795e-037   -36.319   -36.319     0.000
Ca              1.000e-018
   Ca+2                  1.000e-018  7.909e-019   -18.000   -18.102    -0.102
   CaOH+                 1.391e-024  1.312e-024   -23.857   -23.882    -0.025
   CaHCO3+               8.249e-036  7.785e-036   -35.084   -35.109    -0.025
   CaCO3                 4.792e-037  4.795e-037   -36.319   -36.319     0.000
Cl              2.000e-003
   Cl-                   2.000e-003  1.883e-003    -2.699    -2.725    -0.026
H(0)            1.415e-025
   H2                    7.075e-026  7.079e-026   -25.150   -25.150     0.000
Mg              1.000e-003
   Mg+2                  1.000e-003  7.926e-004    -3.000    -3.101    -0.101
   MgOH+                 3.048e-008  2.878e-008    -7.516    -7.541    -0.025
   MgHCO3+               7.599e-021  7.157e-021   -20.119   -20.145    -0.026
   MgCO3                 2.735e-022  2.737e-022   -21.563   -21.563     0.000
O(0)            0.000e+000
   O2                    0.000e+000  0.000e+000   -42.080   -42.080     0.000

------------------------------Saturation indices-------------------------------

	Phase               SI log IAP  log KT

	Aragonite       -31.21  -39.54   -8.34  CaCO3
	Artinite        -23.24  -13.64    9.60  MgCO3:Mg(OH)2:3H2O
	Brucite          -5.94   10.90   16.84  Mg(OH)2
	Calcite         -31.06  -39.54   -8.48  CaCO3
	CO2(g)          -17.29  -18.76   -1.47  CO2
	Dolomite        -47.00  -64.09  -17.09  CaMg(CO3)2
	Dolomite(d)     -47.55  -64.09  -16.54  CaMg(CO3)2
	H2(g)           -22.00  -25.15   -3.15  H2
	Huntite         -83.20 -113.17  -29.97  CaMg3(CO3)4
	Hydromagnesite  -78.51  -87.27   -8.76  Mg5(CO3)4(OH)2:4H2O
	Magnesite       -16.51  -24.54   -8.03  MgCO3
	Nesquehonite    -18.92  -24.54   -5.62  MgCO3:3H2O
	O2(g)           -39.19  -42.08   -2.89  O2
	Portlandite     -26.90   -4.10   22.80  Ca(OH)2

-------------------------------------------
Beginning of initial solution calculations.
-------------------------------------------

Initial solution 0.	WELL in layer 1, row 1, column 1

-----------------------------Solution composition------------------------------

	Elements           Molality       Moles

	C(4)             1.000e-018  1.000e-018
	Ca               1.000e-018  1.000e-018
	Cl               2.000e-003  2.000e-003
	Mg               1.000e-003  1.000e-003

----------------------------Description of solution----------------------------

                                       pH  =   7.000    
                                       pe  =   4.000    
                        Activity of water  =   1.000
                           Ionic strength  =  3.000e-003
                       Mass of water (kg)  =  1.000e+000
                 Total alkalinity (eq/kg)  =  3.113e-008
                       Total CO2 (mol/kg)  =  1.000e-018
                      Temperature (deg C)  =  25.000
                  Electrical balance (eq)  = -3.114e-008
 Percent error, 100*(Cat-|An|)/(Cat+|An|)  =  -0.00
                               Iterations  =   4
                                  Total H  = 1.110124e+002
                                  Total O  = 5.550622e+001

----------------------------Distribution of species----------------------------

                                                   Log       Log         Log 
   Species                 Molality    Activity  Molality  Activity     Gamma

   OH-                   1.063e-007  1.001e-007    -6.973    -7.000    -0.026
   H+                    1.057e-007  1.000e-007    -6.976    -7.000    -0.024
   H2O-0.01              9.120e-010  9.120e-010    -9.040    -9.040    -0.000
   H2O                   5.551e+001  9.999e-001     1.744    -0.000     0.000
C(4)            1.000e-018
   HCO3-                 8.183e-019  7.717e-019   -18.087   -18.113    -0.025
   CO2                   1.734e-019  1.735e-019   -18.761   -18.761     0.000
   MgHCO3+               7.599e-021  7.157e-021   -20.119   -20.145    -0.026
   CO3-2                 4.574e-022  3.619e-022   -21.340   -21.441    -0.102
   MgCO3                 2.735e-022  2.737e-022   -21.563   -21.563     0.000
   CaHCO3+               8.249e-036  7.785e-036   -35.084   -35.109    -0.025
   CaCO3                 4.792e-037  4.795e-037   -36.319   -36.319     0.000
Ca              1.000e-018
   Ca+2                  1.000e-018  7.909e-019   -18.000   -18.102    -0.102
   CaOH+                 1.391e-024  1.312e-024   -23.857   -23.882    -0.025
   CaHCO3+               8.249e-036  7.785e-036   -35.084   -35.109    -0.025
   CaCO3                 4.792e-037  4.795e-037   -36.319   -36.319     0.000
Cl              2.000e-003
   Cl-                   2.000e-003  1.883e-003    -2.699    -2.725    -0.026
H(0)            1.415e-025
   H2                    7.075e-026  7.079e-026   -25.150   -25.150     0.000
Mg              1.000e-003
   Mg+2                  1.000e-003  7.926e-004    -3.000    -3.101    -0.101
   MgOH+                 3.048e-008  2.878e-008    -7.516    -7.541    -0.025
   MgHCO3+               7.599e-021  7.157e-021   -20.119   -20.145    -0.026
   MgCO3                 2.735e-022  2.737e-022   -21.563   -21.563     0.000
O(0)            0.000e+000
   O2                    0.000e+000  0.000e+000   -42.080   -42.080     0.000

------------------------------Saturation indices-------------------------------

	Phase               SI log IAP  log KT

	Aragonite       -31.21  -39.54   -8.34  CaCO3
	Artinite        -23.24  -13.64    9.60  MgCO3:Mg(OH)2:3H2O
	Brucite          -5.94   10.90   16.84  Mg(OH)2
	Calcite         -31.06  -39.54   -8.48  CaCO3
	CO2(g)          -17.29  -18.76   -1.47  CO2
	Dolomite        -47.00  -64.09  -17.09  CaMg(CO3)2
	Dolomite(d)     -47.55  -64.09  -16.54  CaMg(CO3)2
	H2(g)           -22.00  -25.15   -3.15  H2
	Huntite         -83.20 -113.17  -29.97  CaMg3(CO3)4
	Hydromagnesite  -78.51  -87.27   -8.76  Mg5(CO3)4(OH)2:4H2O
	Magnesite       -16.51  -24.54   -8.03  MgCO3
	Nesquehonite    -18.92  -24.54   -5.62  MgCO3:3H2O
	O2(g)           -39.19  -42.08   -2.89  O2
	Portlandite     -26.90   -4.10   22.80  Ca(OH)2

-------------------------------------------
Beginning of initial solution calculations.
-------------------------------------------

Initial solution 0.	WELL in layer 1, row 1, column 1

-----------------------------Solution composition------------------------------

	Elements           Molality       Moles

	C(4)             1.000e-018  1.000e-018
	Ca               1.000e-018  1.000e-018
	Cl               2.000e-003  2.000e-003
	Mg               1.000e-003  1.000e-003

----------------------------Description of solution----------------------------

                                       pH  =   7.000    
                                       pe  =   4.000    
                        Activity of water  =   1.000
                           Ionic strength  =  3.000e-003
                       Mass of water (kg)  =  1.000e+000
                 Total alkalinity (eq/kg)  =  3.113e-008
                       Total CO2 (mol/kg)  =  1.000e-018
                      Temperature (deg C)  =  25.000
                  Electrical balance (eq)  = -3.114e-008
 Percent error, 100*(Cat-|An|)/(Cat+|An|)  =  -0.00
                               Iterations  =   4
                                  Total H  = 1.110124e+002
                                  Total O  = 5.550622e+001

----------------------------Distribution of species----------------------------

                                                   Log       Log         Log 
   Species                 Molality    Activity  Molality  Activity     Gamma

   OH-                   1.063e-007  1.001e-007    -6.973    -7.000    -0.026
   H+                    1.057e-007  1.000e-007    -6.976    -7.000    -0.024
   H2O-0.01              9.120e-010  9.120e-010    -9.040    -9.040    -0.000
   H2O                   5.551e+001  9.999e-001     1.744    -0.000     0.000
C(4)            1.000e-018
   HCO3-                 8.183e-019  7.717e-019   -18.087   -18.113    -0.025
   CO2                   1.734e-019  1.735e-019   -18.761   -18.761     0.000
   MgHCO3+               7.599e-021  7.157e-021   -20.119   -20.145    -0.026
   CO3-2                 4.574e-022  3.619e-022   -21.340   -21.441    -0.102
   MgCO3                 2.735e-022  2.737e-022   -21.563   -21.563     0.000
   CaHCO3+               8.249e-036  7.785e-036   -35.084   -35.109    -0.025
   CaCO3                 4.792e-037  4.795e-037   -36.319   -36.319     0.000
Ca              1.000e-018
   Ca+2                  1.000e-018  7.909e-019   -18.000   -18.102    -0.102
   CaOH+                 1.391e-024  1.312e-024   -23.857   -23.882    -0.025
   CaHCO3+               8.249e-036  7.785e-036   -35.084   -35.109    -0.025
   CaCO3                 4.792e-037  4.795e-037   -36.319   -36.319     0.000
Cl              2.000e-003
   Cl-                   2.000e-003  1.883e-003    -2.699    -2.725    -0.026
H(0)            1.415e-025
   H2                    7.075e-026  7.079e-026   -25.150   -25.150     0.000
Mg              1.000e-003
   Mg+2                  1.000e-003  7.926e-004    -3.000    -3.101    -0.101
   MgOH+                 3.048e-008  2.878e-008    -7.516    -7.541    -0.025
   MgHCO3+               7.599e-021  7.157e-021   -20.119   -20.145    -0.026
   MgCO3                 2.735e-022  2.737e-022   -21.563   -21.563     0.000
O(0)            0.000e+000
   O2                    0.000e+000  0.000e+000   -42.080   -42.080     0.000

------------------------------Saturation indices-------------------------------

	Phase               SI log IAP  log KT

	Aragonite       -31.21  -39.54   -8.34  CaCO3
	Artinite        -23.24  -13.64    9.60  MgCO3:Mg(OH)2:3H2O
	Brucite          -5.94   10.90   16.84  Mg(OH)2
	Calcite         -31.06  -39.54   -8.48  CaCO3
	CO2(g)          -17.29  -18.76   -1.47  CO2
	Dolomite        -47.00  -64.09  -17.09  CaMg(CO3)2
	Dolomite(d)     -47.55  -64.09  -16.54  CaMg(CO3)2
	H2(g)           -22.00  -25.15   -3.15  H2
	Huntite         -83.20 -113.17  -29.97  CaMg3(CO3)4
	Hydromagnesite  -78.51  -87.27   -8.76  Mg5(CO3)4(OH)2:4H2O
	Magnesite       -16.51  -24.54   -8.03  MgCO3
	Nesquehonite    -18.92  -24.54   -5.62  MgCO3:3H2O
	O2(g)           -39.19  -42.08   -2.89  O2
	Portlandite     -26.90   -4.10   22.80  Ca(OH)2

-------------------------------------------
Beginning of initial solution calculations.
-------------------------------------------

Initial solution 0.	WELL in layer 1, row 1, column 1

-----------------------------Solution composition------------------------------

	Elements           Molality       Moles

	C(4)             1.000e-018  1.000e-018
	Ca               1.000e-018  1.000e-018
	Cl               2.000e-003  2.000e-003
	Mg               1.000e-003  1.000e-003

----------------------------Description of solution----------------------------

                                       pH  =   7.000    
                                       pe  =   4.000    
                        Activity of water  =   1.000
                           Ionic strength  =  3.000e-003
                       Mass of water (kg)  =  1.000e+000
                 Total alkalinity (eq/kg)  =  3.113e-008
                       Total CO2 (mol/kg)  =  1.000e-018
                      Temperature (deg C)  =  25.000
                  Electrical balance (eq)  = -3.114e-008
 Percent error, 100*(Cat-|An|)/(Cat+|An|)  =  -0.00
                               Iterations  =   4
                                  Total H  = 1.110124e+002
                                  Total O  = 5.550622e+001

----------------------------Distribution of species----------------------------

                                                   Log       Log         Log 
   Species                 Molality    Activity  Molality  Activity     Gamma

   OH-                   1.063e-007  1.001e-007    -6.973    -7.000    -0.026
   H+                    1.057e-007  1.000e-007    -6.976    -7.000    -0.024
   H2O-0.01              9.120e-010  9.120e-010    -9.040    -9.040    -0.000
   H2O                   5.551e+001  9.999e-001     1.744    -0.000     0.000
C(4)            1.000e-018
   HCO3-                 8.183e-019  7.717e-019   -18.087   -18.113    -0.025
   CO2                   1.734e-019  1.735e-019   -18.761   -18.761     0.000
   MgHCO3+               7.599e-021  7.157e-021   -20.119   -20.145    -0.026
   CO3-2                 4.574e-022  3.619e-022   -21.340   -21.441    -0.102
   MgCO3                 2.735e-022  2.737e-022   -21.563   -21.563     0.000
   CaHCO3+               8.249e-036  7.785e-036   -35.084   -35.109    -0.025
   CaCO3                 4.792e-037  4.795e-037   -36.319   -36.319     0.000
Ca              1.000e-018
   Ca+2                  1.000e-018  7.909e-019   -18.000   -18.102    -0.102
   CaOH+                 1.391e-024  1.312e-024   -23.857   -23.882    -0.025
   CaHCO3+               8.249e-036  7.785e-036   -35.084   -35.109    -0.025
   CaCO3                 4.792e-037  4.795e-037   -36.319   -36.319     0.000
Cl              2.000e-003
   Cl-                   2.000e-003  1.883e-003    -2.699    -2.725    -0.026
H(0)            1.415e-025
   H2                    7.075e-026  7.079e-026   -25.150   -25.150     0.000
Mg              1.000e-003
   Mg+2                  1.000e-003  7.926e-004    -3.000    -3.101    -0.101
   MgOH+                 3.048e-008  2.878e-008    -7.516    -7.541    -0.025
   MgHCO3+               7.599e-021  7.157e-021   -20.119   -20.145    -0.026
   MgCO3                 2.735e-022  2.737e-022   -21.563   -21.563     0.000
O(0)            0.000e+000
   O2                    0.000e+000  0.000e+000   -42.080   -42.080     0.000

------------------------------Saturation indices-------------------------------

	Phase               SI log IAP  log KT

	Aragonite       -31.21  -39.54   -8.34  CaCO3
	Artinite        -23.24  -13.64    9.60  MgCO3:Mg(OH)2:3H2O
	Brucite          -5.94   10.90   16.84  Mg(OH)2
	Calcite         -31.06  -39.54   -8.48  CaCO3
	CO2(g)          -17.29  -18.76   -1.47  CO2
	Dolomite        -47.00  -64.09  -17.09  CaMg(CO3)2
	Dolomite(d)     -47.55  -64.09  -16.54  CaMg(CO3)2
	H2(g)           -22.00  -25.15   -3.15  H2
	Huntite         -83.20 -113.17  -29.97  CaMg3(CO3)4
	Hydromagnesite  -78.51  -87.27   -8.76  Mg5(CO3)4(OH)2:4H2O
	Magnesite       -16.51  -24.54   -8.03  MgCO3
	Nesquehonite    -18.92  -24.54   -5.62  MgCO3:3H2O
	O2(g)           -39.19  -42.08   -2.89  O2
	Portlandite     -26.90   -4.10   22.80  Ca(OH)2

-------------------------------------------
Beginning of initial solution calculations.
-------------------------------------------

Initial solution 0.	WELL in layer 1, row 1, column 1

-----------------------------Solution composition------------------------------

	Elements           Molality       Moles

	C(4)             1.000e-018  1.000e-018
	Ca               1.000e-018  1.000e-018
	Cl               2.000e-003  2.000e-003
	Mg               1.000e-003  1.000e-003

----------------------------Description of solution----------------------------

                                       pH  =   7.000    
                                       pe  =   4.000    
                        Activity of water  =   1.000
                           Ionic strength  =  3.000e-003
                       Mass of water (kg)  =  1.000e+000
                 Total alkalinity (eq/kg)  =  3.113e-008
                       Total CO2 (mol/kg)  =  1.000e-018
                      Temperature (deg C)  =  25.000
                  Electrical balance (eq)  = -3.114e-008
 Percent error, 100*(Cat-|An|)/(Cat+|An|)  =  -0.00
                               Iterations  =   4
                                  Total H  = 1.110124e+002
                                  Total O  = 5.550622e+001

----------------------------Distribution of species----------------------------

                                                   Log       Log         Log 
   Species                 Molality    Activity  Molality  Activity     Gamma

   OH-                   1.063e-007  1.001e-007    -6.973    -7.000    -0.026
   H+                    1.057e-007  1.000e-007    -6.976    -7.000    -0.024
   H2O-0.01              9.120e-010  9.120e-010    -9.040    -9.040    -0.000
   H2O                   5.551e+001  9.999e-001     1.744    -0.000     0.000
C(4)            1.000e-018
   HCO3-                 8.183e-019  7.717e-019   -18.087   -18.113    -0.025
   CO2                   1.734e-019  1.735e-019   -18.761   -18.761     0.000
   MgHCO3+               7.599e-021  7.157e-021   -20.119   -20.145    -0.026
   CO3-2                 4.574e-022  3.619e-022   -21.340   -21.441    -0.102
   MgCO3                 2.735e-022  2.737e-022   -21.563   -21.563     0.000
   CaHCO3+               8.249e-036  7.785e-036   -35.084   -35.109    -0.025
   CaCO3                 4.792e-037  4.795e-037   -36.319   -36.319     0.000
Ca              1.000e-018
   Ca+2                  1.000e-018  7.909e-019   -18.000   -18.102    -0.102
   CaOH+                 1.391e-024  1.312e-024   -23.857   -23.882    -0.025
   CaHCO3+               8.249e-036  7.785e-036   -35.084   -35.109    -0.025
   CaCO3                 4.792e-037  4.795e-037   -36.319   -36.319     0.000
Cl              2.000e-003
   Cl-                   2.000e-003  1.883e-003    -2.699    -2.725    -0.026
H(0)            1.415e-025
   H2                    7.075e-026  7.079e-026   -25.150   -25.150     0.000
Mg              1.000e-003
   Mg+2                  1.000e-003  7.926e-004    -3.000    -3.101    -0.101
   MgOH+                 3.048e-008  2.878e-008    -7.516    -7.541    -0.025
   MgHCO3+               7.599e-021  7.157e-021   -20.119   -20.145    -0.026
   MgCO3                 2.735e-022  2.737e-022   -21.563   -21.563     0.000
O(0)            0.000e+000
   O2                    0.000e+000  0.000e+000   -42.080   -42.080     0.000

------------------------------Saturation indices-------------------------------

	Phase               SI log IAP  log KT

	Aragonite       -31.21  -39.54   -8.34  CaCO3
	Artinite        -23.24  -13.64    9.60  MgCO3:Mg(OH)2:3H2O
	Brucite          -5.94   10.90   16.84  Mg(OH)2
	Calcite         -31.06  -39.54   -8.48  CaCO3
	CO2(g)          -17.29  -18.76   -1.47  CO2
	Dolomite        -47.00  -64.09  -17.09  CaMg(CO3)2
	Dolomite(d)     -47.55  -64.09  -16.54  CaMg(CO3)2
	H2(g)           -22.00  -25.15   -3.15  H2
	Huntite         -83.20 -113.17  -29.97  CaMg3(CO3)4
	Hydromagnesite  -78.51  -87.27   -8.76  Mg5(CO3)4(OH)2:4H2O
	Magnesite       -16.51  -24.54   -8.03  MgCO3
	Nesquehonite    -18.92  -24.54   -5.62  MgCO3:3H2O
	O2(g)           -39.19  -42.08   -2.89  O2
	Portlandite     -26.90   -4.10   22.80  Ca(OH)2

-------------------------------------------
Beginning of initial solution calculations.
-------------------------------------------

Initial solution 0.	WELL in layer 1, row 1, column 1

-----------------------------Solution composition------------------------------

	Elements           Molality       Moles

	C(4)             1.000e-018  1.000e-018
	Ca               1.000e-018  1.000e-018
	Cl               2.000e-003  2.000e-003
	Mg               1.000e-003  1.000e-003

----------------------------Description of solution----------------------------

                                       pH  =   7.000    
                                       pe  =   4.000    
                        Activity of water  =   1.000
                           Ionic strength  =  3.000e-003
                       Mass of water (kg)  =  1.000e+000
                 Total alkalinity (eq/kg)  =  3.113e-008
                       Total CO2 (mol/kg)  =  1.000e-018
                      Temperature (deg C)  =  25.000
                  Electrical balance (eq)  = -3.114e-008
 Percent error, 100*(Cat-|An|)/(Cat+|An|)  =  -0.00
                               Iterations  =   4
                                  Total H  = 1.110124e+002
                                  Total O  = 5.550622e+001

----------------------------Distribution of species----------------------------

                                                   Log       Log         Log 
   Species                 Molality    Activity  Molality  Activity     Gamma

   OH-                   1.063e-007  1.001e-007    -6.973    -7.000    -0.026
   H+                    1.057e-007  1.000e-007    -6.976    -7.000    -0.024
   H2O-0.01              9.120e-010  9.120e-010    -9.040    -9.040    -0.000
   H2O                   5.551e+001  9.999e-001     1.744    -0.000     0.000
C(4)            1.000e-018
   HCO3-                 8.183e-019  7.717e-019   -18.087   -18.113    -0.025
   CO2                   1.734e-019  1.735e-019   -18.761   -18.761     0.000
   MgHCO3+               7.599e-021  7.157e-021   -20.119   -20.145    -0.026
   CO3-2                 4.574e-022  3.619e-022   -21.340   -21.441    -0.102
   MgCO3                 2.735e-022  2.737e-022   -21.563   -21.563     0.000
   CaHCO3+               8.249e-036  7.785e-036   -35.084   -35.109    -0.025
   CaCO3                 4.792e-037  4.795e-037   -36.319   -36.319     0.000
Ca              1.000e-018
   Ca+2                  1.000e-018  7.909e-019   -18.000   -18.102    -0.102
   CaOH+                 1.391e-024  1.312e-024   -23.857   -23.882    -0.025
   CaHCO3+               8.249e-036  7.785e-036   -35.084   -35.109    -0.025
[...]
                                  Total H  = 1.110124e+002
                                  Total O  = 5.550622e+001

----------------------------Distribution of species----------------------------

                                                   Log       Log         Log 
   Species                 Molality    Activity  Molality  Activity     Gamma

   OH-                   1.063e-007  1.001e-007    -6.973    -7.000    -0.026
   H+                    1.057e-007  1.000e-007    -6.976    -7.000    -0.024
   H2O-0.01              9.120e-010  9.120e-010    -9.040    -9.040    -0.000
   H2O                   5.551e+001  9.999e-001     1.744    -0.000     0.000
C(4)            1.000e-018
   HCO3-                 8.183e-019  7.717e-019   -18.087   -18.113    -0.025
   CO2                   1.734e-019  1.735e-019   -18.761   -18.761     0.000
   MgHCO3+               7.599e-021  7.157e-021   -20.119   -20.145    -0.026
   CO3-2                 4.574e-022  3.619e-022   -21.340   -21.441    -0.102
   MgCO3                 2.735e-022  2.737e-022   -21.563   -21.563     0.000
   CaHCO3+               8.249e-036  7.785e-036   -35.084   -35.109    -0.025
   CaCO3                 4.792e-037  4.795e-037   -36.319   -36.319     0.000
Ca              1.000e-018
   Ca+2                  1.000e-018  7.909e-019   -18.000   -18.102    -0.102
   CaOH+                 1.391e-024  1.312e-024   -23.857   -23.882    -0.025
   CaHCO3+               8.249e-036  7.785e-036   -35.084   -35.109    -0.025
   CaCO3                 4.792e-037  4.795e-037   -36.319   -36.319     0.000
Cl              2.000e-003
   Cl-                   2.000e-003  1.883e-003    -2.699    -2.725    -0.026
H(0)            1.415e-025
   H2                    7.075e-026  7.079e-026   -25.150   -25.150     0.000
Mg              1.000e-003
   Mg+2                  1.000e-003  7.926e-004    -3.000    -3.101    -0.101
   MgOH+                 3.048e-008  2.878e-008    -7.516    -7.541    -0.025
   MgHCO3+               7.599e-021  7.157e-021   -20.119   -20.145    -0.026
   MgCO3                 2.735e-022  2.737e-022   -21.563   -21.563     0.000
O(0)            0.000e+000
   O2                    0.000e+000  0.000e+000   -42.080   -42.080     0.000

------------------------------Saturation indices-------------------------------

	Phase               SI log IAP  log KT

	Aragonite       -31.21  -39.54   -8.34  CaCO3
	Artinite        -23.24  -13.64    9.60  MgCO3:Mg(OH)2:3H2O
	Brucite          -5.94   10.90   16.84  Mg(OH)2
	Calcite         -31.06  -39.54   -8.48  CaCO3
	CO2(g)          -17.29  -18.76   -1.47  CO2
	Dolomite        -47.00  -64.09  -17.09  CaMg(CO3)2
	Dolomite(d)     -47.55  -64.09  -16.54  CaMg(CO3)2
	H2(g)           -22.00  -25.15   -3.15  H2
	Huntite         -83.20 -113.17  -29.97  CaMg3(CO3)4
	Hydromagnesite  -78.51  -87.27   -8.76  Mg5(CO3)4(OH)2:4H2O
	Magnesite       -16.51  -24.54   -8.03  MgCO3
	Nesquehonite    -18.92  -24.54   -5.62  MgCO3:3H2O
	O2(g)           -39.19  -42.08   -2.89  O2
	Portlandite     -26.90   -4.10   22.80  Ca(OH)2

-------------------------------------------
Beginning of initial solution calculations.
-------------------------------------------

Initial solution 0.	WELL in layer 1, row 1, column 1

-----------------------------Solution composition------------------------------

	Elements           Molality       Moles

	C(4)             1.000e-018  1.000e-018
	Ca               1.000e-018  1.000e-018
	Cl               2.000e-003  2.000e-003
	Mg               1.000e-003  1.000e-003

----------------------------Description of solution----------------------------

                                       pH  =   7.000    
                                       pe  =   4.000    
                        Activity of water  =   1.000
                           Ionic strength  =  3.000e-003
                       Mass of water (kg)  =  1.000e+000
                 Total alkalinity (eq/kg)  =  3.113e-008
                       Total CO2 (mol/kg)  =  1.000e-018
                      Temperature (deg C)  =  25.000
                  Electrical balance (eq)  = -3.114e-008
 Percent error, 100*(Cat-|An|)/(Cat+|An|)  =  -0.00
                               Iterations  =   4
                                  Total H  = 1.110124e+002
                                  Total O  = 5.550622e+001

----------------------------Distribution of species----------------------------

                                                   Log       Log         Log 
   Species                 Molality    Activity  Molality  Activity     Gamma

   OH-                   1.063e-007  1.001e-007    -6.973    -7.000    -0.026
   H+                    1.057e-007  1.000e-007    -6.976    -7.000    -0.024
   H2O-0.01              9.120e-010  9.120e-010    -9.040    -9.040    -0.000
   H2O                   5.551e+001  9.999e-001     1.744    -0.000     0.000
C(4)            1.000e-018
   HCO3-                 8.183e-019  7.717e-019   -18.087   -18.113    -0.025
   CO2                   1.734e-019  1.735e-019   -18.761   -18.761     0.000
   MgHCO3+               7.599e-021  7.157e-021   -20.119   -20.145    -0.026
   CO3-2                 4.574e-022  3.619e-022   -21.340   -21.441    -0.102
   MgCO3                 2.735e-022  2.737e-022   -21.563   -21.563     0.000
   CaHCO3+               8.249e-036  7.785e-036   -35.084   -35.109    -0.025
   CaCO3                 4.792e-037  4.795e-037   -36.319   -36.319     0.000
Ca              1.000e-018
   Ca+2                  1.000e-018  7.909e-019   -18.000   -18.102    -0.102
   CaOH+                 1.391e-024  1.312e-024   -23.857   -23.882    -0.025
   CaHCO3+               8.249e-036  7.785e-036   -35.084   -35.109    -0.025
   CaCO3                 4.792e-037  4.795e-037   -36.319   -36.319     0.000
Cl              2.000e-003
   Cl-                   2.000e-003  1.883e-003    -2.699    -2.725    -0.026
H(0)            1.415e-025
   H2                    7.075e-026  7.079e-026   -25.150   -25.150     0.000
Mg              1.000e-003
   Mg+2                  1.000e-003  7.926e-004    -3.000    -3.101    -0.101
   MgOH+                 3.048e-008  2.878e-008    -7.516    -7.541    -0.025
   MgHCO3+               7.599e-021  7.157e-021   -20.119   -20.145    -0.026
   MgCO3                 2.735e-022  2.737e-022   -21.563   -21.563     0.000
O(0)            0.000e+000
   O2                    0.000e+000  0.000e+000   -42.080   -42.080     0.000

------------------------------Saturation indices-------------------------------

	Phase               SI log IAP  log KT

	Aragonite       -31.21  -39.54   -8.34  CaCO3
	Artinite        -23.24  -13.64    9.60  MgCO3:Mg(OH)2:3H2O
	Brucite          -5.94   10.90   16.84  Mg(OH)2
	Calcite         -31.06  -39.54   -8.48  CaCO3
	CO2(g)          -17.29  -18.76   -1.47  CO2
	Dolomite        -47.00  -64.09  -17.09  CaMg(CO3)2
	Dolomite(d)     -47.55  -64.09  -16.54  CaMg(CO3)2
	H2(g)           -22.00  -25.15   -3.15  H2
	Huntite         -83.20 -113.17  -29.97  CaMg3(CO3)4
	Hydromagnesite  -78.51  -87.27   -8.76  Mg5(CO3)4(OH)2:4H2O
	Magnesite       -16.51  -24.54   -8.03  MgCO3
	Nesquehonite    -18.92  -24.54   -5.62  MgCO3:3H2O
	O2(g)           -39.19  -42.08   -2.89  O2
	Portlandite     -26.90   -4.10   22.80  Ca(OH)2

-------------------------------------------
Beginning of initial solution calculations.
-------------------------------------------

Initial solution 0.	WELL in layer 1, row 1, column 1

-----------------------------Solution composition------------------------------

	Elements           Molality       Moles

	C(4)             1.000e-018  1.000e-018
	Ca               1.000e-018  1.000e-018
	Cl               2.000e-003  2.000e-003
	Mg               1.000e-003  1.000e-003

----------------------------Description of solution----------------------------

                                       pH  =   7.000    
                                       pe  =   4.000    
                        Activity of water  =   1.000
                           Ionic strength  =  3.000e-003
                       Mass of water (kg)  =  1.000e+000
                 Total alkalinity (eq/kg)  =  3.113e-008
                       Total CO2 (mol/kg)  =  1.000e-018
                      Temperature (deg C)  =  25.000
                  Electrical balance (eq)  = -3.114e-008
 Percent error, 100*(Cat-|An|)/(Cat+|An|)  =  -0.00
                               Iterations  =   4
                                  Total H  = 1.110124e+002
                                  Total O  = 5.550622e+001

----------------------------Distribution of species----------------------------

                                                   Log       Log         Log 
   Species                 Molality    Activity  Molality  Activity     Gamma

   OH-                   1.063e-007  1.001e-007    -6.973    -7.000    -0.026
   H+                    1.057e-007  1.000e-007    -6.976    -7.000    -0.024
   H2O-0.01              9.120e-010  9.120e-010    -9.040    -9.040    -0.000
   H2O                   5.551e+001  9.999e-001     1.744    -0.000     0.000
C(4)            1.000e-018
   HCO3-                 8.183e-019  7.717e-019   -18.087   -18.113    -0.025
   CO2                   1.734e-019  1.735e-019   -18.761   -18.761     0.000
   MgHCO3+               7.599e-021  7.157e-021   -20.119   -20.145    -0.026
   CO3-2                 4.574e-022  3.619e-022   -21.340   -21.441    -0.102
   MgCO3                 2.735e-022  2.737e-022   -21.563   -21.563     0.000
   CaHCO3+               8.249e-036  7.785e-036   -35.084   -35.109    -0.025
   CaCO3                 4.792e-037  4.795e-037   -36.319   -36.319     0.000
Ca              1.000e-018
   Ca+2                  1.000e-018  7.909e-019   -18.000   -18.102    -0.102
   CaOH+                 1.391e-024  1.312e-024   -23.857   -23.882    -0.025
   CaHCO3+               8.249e-036  7.785e-036   -35.084   -35.109    -0.025
   CaCO3                 4.792e-037  4.795e-037   -36.319   -36.319     0.000
Cl              2.000e-003
   Cl-                   2.000e-003  1.883e-003    -2.699    -2.725    -0.026
H(0)            1.415e-025
   H2                    7.075e-026  7.079e-026   -25.150   -25.150     0.000
Mg              1.000e-003
   Mg+2                  1.000e-003  7.926e-004    -3.000    -3.101    -0.101
   MgOH+                 3.048e-008  2.878e-008    -7.516    -7.541    -0.025
   MgHCO3+               7.599e-021  7.157e-021   -20.119   -20.145    -0.026
   MgCO3                 2.735e-022  2.737e-022   -21.563   -21.563     0.000
O(0)            0.000e+000
   O2                    0.000e+000  0.000e+000   -42.080   -42.080     0.000

------------------------------Saturation indices-------------------------------

	Phase               SI log IAP  log KT

	Aragonite       -31.21  -39.54   -8.34  CaCO3
	Artinite        -23.24  -13.64    9.60  MgCO3:Mg(OH)2:3H2O
	Brucite          -5.94   10.90   16.84  Mg(OH)2
	Calcite         -31.06  -39.54   -8.48  CaCO3
	CO2(g)          -17.29  -18.76   -1.47  CO2
	Dolomite        -47.00  -64.09  -17.09  CaMg(CO3)2
	Dolomite(d)     -47.55  -64.09  -16.54  CaMg(CO3)2
	H2(g)           -22.00  -25.15   -3.15  H2
	Huntite         -83.20 -113.17  -29.97  CaMg3(CO3)4
	Hydromagnesite  -78.51  -87.27   -8.76  Mg5(CO3)4(OH)2:4H2O
	Magnesite       -16.51  -24.54   -8.03  MgCO3
	Nesquehonite    -18.92  -24.54   -5.62  MgCO3:3H2O
	O2(g)           -39.19  -42.08   -2.89  O2
	Portlandite     -26.90   -4.10   22.80  Ca(OH)2

-------------------------------------------
Beginning of initial solution calculations.
-------------------------------------------

Initial solution 0.	WELL in layer 1, row 1, column 1

-----------------------------Solution composition------------------------------

	Elements           Molality       Moles

	C(4)             1.000e-018  1.000e-018
	Ca               1.000e-018  1.000e-018
	Cl               2.000e-003  2.000e-003
	Mg               1.000e-003  1.000e-003

----------------------------Description of solution----------------------------

                                       pH  =   7.000    
                                       pe  =   4.000    
                        Activity of water  =   1.000
                           Ionic strength  =  3.000e-003
                       Mass of water (kg)  =  1.000e+000
                 Total alkalinity (eq/kg)  =  3.113e-008
                       Total CO2 (mol/kg)  =  1.000e-018
                      Temperature (deg C)  =  25.000
                  Electrical balance (eq)  = -3.114e-008
 Percent error, 100*(Cat-|An|)/(Cat+|An|)  =  -0.00
                               Iterations  =   4
                                  Total H  = 1.110124e+002
                                  Total O  = 5.550622e+001

----------------------------Distribution of species----------------------------

                                                   Log       Log         Log 
   Species                 Molality    Activity  Molality  Activity     Gamma

   OH-                   1.063e-007  1.001e-007    -6.973    -7.000    -0.026
   H+                    1.057e-007  1.000e-007    -6.976    -7.000    -0.024
   H2O-0.01              9.120e-010  9.120e-010    -9.040    -9.040    -0.000
   H2O                   5.551e+001  9.999e-001     1.744    -0.000     0.000
C(4)            1.000e-018
   HCO3-                 8.183e-019  7.717e-019   -18.087   -18.113    -0.025
   CO2                   1.734e-019  1.735e-019   -18.761   -18.761     0.000
   MgHCO3+               7.599e-021  7.157e-021   -20.119   -20.145    -0.026
   CO3-2                 4.574e-022  3.619e-022   -21.340   -21.441    -0.102
   MgCO3                 2.735e-022  2.737e-022   -21.563   -21.563     0.000
   CaHCO3+               8.249e-036  7.785e-036   -35.084   -35.109    -0.025
   CaCO3                 4.792e-037  4.795e-037   -36.319   -36.319     0.000
Ca              1.000e-018
   Ca+2                  1.000e-018  7.909e-019   -18.000   -18.102    -0.102
   CaOH+                 1.391e-024  1.312e-024   -23.857   -23.882    -0.025
   CaHCO3+               8.249e-036  7.785e-036   -35.084   -35.109    -0.025
   CaCO3                 4.792e-037  4.795e-037   -36.319   -36.319     0.000
Cl              2.000e-003
   Cl-                   2.000e-003  1.883e-003    -2.699    -2.725    -0.026
H(0)            1.415e-025
   H2                    7.075e-026  7.079e-026   -25.150   -25.150     0.000
Mg              1.000e-003
   Mg+2                  1.000e-003  7.926e-004    -3.000    -3.101    -0.101
   MgOH+                 3.048e-008  2.878e-008    -7.516    -7.541    -0.025
   MgHCO3+               7.599e-021  7.157e-021   -20.119   -20.145    -0.026
   MgCO3                 2.735e-022  2.737e-022   -21.563   -21.563     0.000
O(0)            0.000e+000
   O2                    0.000e+000  0.000e+000   -42.080   -42.080     0.000

------------------------------Saturation indices-------------------------------

	Phase               SI log IAP  log KT

	Aragonite       -31.21  -39.54   -8.34  CaCO3
	Artinite        -23.24  -13.64    9.60  MgCO3:Mg(OH)2:3H2O
	Brucite          -5.94   10.90   16.84  Mg(OH)2
	Calcite         -31.06  -39.54   -8.48  CaCO3
	CO2(g)          -17.29  -18.76   -1.47  CO2
	Dolomite        -47.00  -64.09  -17.09  CaMg(CO3)2
	Dolomite(d)     -47.55  -64.09  -16.54  CaMg(CO3)2
	H2(g)           -22.00  -25.15   -3.15  H2
	Huntite         -83.20 -113.17  -29.97  CaMg3(CO3)4
	Hydromagnesite  -78.51  -87.27   -8.76  Mg5(CO3)4(OH)2:4H2O
	Magnesite       -16.51  -24.54   -8.03  MgCO3
	Nesquehonite    -18.92  -24.54   -5.62  MgCO3:3H2O
	O2(g)           -39.19  -42.08   -2.89  O2
	Portlandite     -26.90   -4.10   22.80  Ca(OH)2

-------------------------------------------
Beginning of initial solution calculations.
-------------------------------------------

Initial solution 0.	WELL in layer 1, row 1, column 1

-----------------------------Solution composition------------------------------

	Elements           Molality       Moles

	C(4)             1.000e-018  1.000e-018
	Ca               1.000e-018  1.000e-018
	Cl               2.000e-003  2.000e-003
	Mg               1.000e-003  1.000e-003

----------------------------Description of solution----------------------------

                                       pH  =   7.000    
                                       pe  =   4.000    
                        Activity of water  =   1.000
                           Ionic strength  =  3.000e-003
                       Mass of water (kg)  =  1.000e+000
                 Total alkalinity (eq/kg)  =  3.113e-008
                       Total CO2 (mol/kg)  =  1.000e-018
                      Temperature (deg C)  =  25.000
                  Electrical balance (eq)  = -3.114e-008
 Percent error, 100*(Cat-|An|)/(Cat+|An|)  =  -0.00
                               Iterations  =   4
                                  Total H  = 1.110124e+002
                                  Total O  = 5.550622e+001

----------------------------Distribution of species----------------------------

                                                   Log       Log         Log 
   Species                 Molality    Activity  Molality  Activity     Gamma

   OH-                   1.063e-007  1.001e-007    -6.973    -7.000    -0.026
   H+                    1.057e-007  1.000e-007    -6.976    -7.000    -0.024
   H2O-0.01              9.120e-010  9.120e-010    -9.040    -9.040    -0.000
   H2O                   5.551e+001  9.999e-001     1.744    -0.000     0.000
C(4)            1.000e-018
   HCO3-                 8.183e-019  7.717e-019   -18.087   -18.113    -0.025
   CO2                   1.734e-019  1.735e-019   -18.761   -18.761     0.000
   MgHCO3+               7.599e-021  7.157e-021   -20.119   -20.145    -0.026
   CO3-2                 4.574e-022  3.619e-022   -21.340   -21.441    -0.102
   MgCO3                 2.735e-022  2.737e-022   -21.563   -21.563     0.000
   CaHCO3+               8.249e-036  7.785e-036   -35.084   -35.109    -0.025
   CaCO3                 4.792e-037  4.795e-037   -36.319   -36.319     0.000
Ca              1.000e-018
   Ca+2                  1.000e-018  7.909e-019   -18.000   -18.102    -0.102
   CaOH+                 1.391e-024  1.312e-024   -23.857   -23.882    -0.025
   CaHCO3+               8.249e-036  7.785e-036   -35.084   -35.109    -0.025
   CaCO3                 4.792e-037  4.795e-037   -36.319   -36.319     0.000
Cl              2.000e-003
   Cl-                   2.000e-003  1.883e-003    -2.699    -2.725    -0.026
H(0)            1.415e-025
   H2                    7.075e-026  7.079e-026   -25.150   -25.150     0.000
Mg              1.000e-003
   Mg+2                  1.000e-003  7.926e-004    -3.000    -3.101    -0.101
   MgOH+                 3.048e-008  2.878e-008    -7.516    -7.541    -0.025
   MgHCO3+               7.599e-021  7.157e-021   -20.119   -20.145    -0.026
   MgCO3                 2.735e-022  2.737e-022   -21.563   -21.563     0.000
O(0)            0.000e+000
   O2                    0.000e+000  0.000e+000   -42.080   -42.080     0.000

------------------------------Saturation indices-------------------------------

	Phase               SI log IAP  log KT

	Aragonite       -31.21  -39.54   -8.34  CaCO3
	Artinite        -23.24  -13.64    9.60  MgCO3:Mg(OH)2:3H2O
	Brucite          -5.94   10.90   16.84  Mg(OH)2
	Calcite         -31.06  -39.54   -8.48  CaCO3
	CO2(g)          -17.29  -18.76   -1.47  CO2
	Dolomite        -47.00  -64.09  -17.09  CaMg(CO3)2
	Dolomite(d)     -47.55  -64.09  -16.54  CaMg(CO3)2
	H2(g)           -22.00  -25.15   -3.15  H2
	Huntite         -83.20 -113.17  -29.97  CaMg3(CO3)4
	Hydromagnesite  -78.51  -87.27   -8.76  Mg5(CO3)4(OH)2:4H2O
	Magnesite       -16.51  -24.54   -8.03  MgCO3
	Nesquehonite    -18.92  -24.54   -5.62  MgCO3:3H2O
	O2(g)           -39.19  -42.08   -2.89  O2
	Portlandite     -26.90   -4.10   22.80  Ca(OH)2

